*SPEF "ieee 1481-1999"
*DESIGN "spad_env_f_bit"
*DATE "14:49:13 Thursday August 14, 2025"
*VENDOR "The OpenROAD Project"
*PROGRAM "OpenROAD"
*VERSION "341650e72dad0dc8571822ff8c5d9c5e365327f7"
*DESIGN_FLOW "NAME_SCOPE LOCAL" "PIN_CAP NONE"
*DIVIDER /
*DELIMITER :
*BUS_DELIMITER []
*T_UNIT 1 NS
*C_UNIT 1 PF
*R_UNIT 1 OHM
*L_UNIT 1 HENRY

*NAME_MAP
*3 clk
*4 env_bit
*5 env_valid
*6 spad_hit_async
*7 _000_
*8 _001_
*9 _002_
*10 _003_
*11 _004_
*12 _005_
*13 _006_
*14 _007_
*15 _008_
*16 _009_
*17 _010_
*18 _011_
*19 _012_
*20 _013_
*21 _014_
*22 _015_
*23 _016_
*24 _017_
*25 _018_
*26 _019_
*27 _020_
*28 _021_
*29 _022_
*30 _023_
*31 _024_
*32 _025_
*33 _026_
*34 _027_
*35 _028_
*36 _029_
*37 _030_
*38 _031_
*39 _032_
*40 _033_
*41 _034_
*42 _035_
*43 _036_
*44 _037_
*45 _038_
*46 _039_
*47 _040_
*48 _041_
*49 _042_
*50 _043_
*51 _044_
*52 _045_
*53 _046_
*54 _047_
*55 _048_
*56 _049_
*57 _050_
*58 _051_
*59 _052_
*60 _053_
*61 clknet_0_clk
*62 clknet_2_0__leaf_clk
*63 clknet_2_1__leaf_clk
*64 clknet_2_2__leaf_clk
*65 clknet_2_3__leaf_clk
*66 net1
*67 net10
*68 net11
*69 net12
*70 net13
*71 net14
*72 net15
*73 net16
*74 net17
*75 net18
*76 net19
*77 net2
*78 net20
*79 net21
*80 net22
*81 net23
*82 net24
*83 net25
*84 net26
*85 net27
*86 net28
*87 net29
*88 net3
*89 net30
*90 net31
*91 net32
*92 net33
*93 net34
*94 net35
*95 net36
*96 net37
*97 net38
*98 net39
*99 net4
*100 net40
*101 net41
*102 net42
*103 net43
*104 net44
*105 net45
*106 net46
*107 net47
*108 net48
*109 net49
*110 net5
*111 net50
*112 net51
*113 net52
*114 net53
*115 net54
*116 net55
*117 net56
*118 net57
*119 net58
*120 net59
*121 net6
*122 net60
*123 net61
*124 net62
*125 net63
*126 net64
*127 net65
*128 net66
*129 net67
*130 net68
*131 net69
*132 net7
*133 net70
*134 net71
*135 net72
*136 net73
*137 net74
*138 net75
*139 net76
*140 net8
*141 net9
*142 prev2_bit
*143 pulse_cnt\[0\]
*144 pulse_cnt\[1\]
*145 pulse_cnt\[2\]
*146 pulse_cnt\[3\]
*147 rise_spad
*148 s0
*149 s1
*150 s1_d
*151 win_cnt\[0\]
*152 win_cnt\[10\]
*153 win_cnt\[11\]
*154 win_cnt\[12\]
*155 win_cnt\[13\]
*156 win_cnt\[14\]
*157 win_cnt\[15\]
*158 win_cnt\[1\]
*159 win_cnt\[2\]
*160 win_cnt\[3\]
*161 win_cnt\[4\]
*162 win_cnt\[5\]
*163 win_cnt\[6\]
*164 win_cnt\[7\]
*165 win_cnt\[8\]
*166 win_cnt\[9\]
*167 win_rollover
*168 FILLER_0_0
*169 FILLER_0_102
*170 FILLER_0_109
*171 FILLER_0_116
*172 FILLER_0_123
*173 FILLER_0_130
*174 FILLER_0_137
*175 FILLER_0_14
*176 FILLER_0_21
*177 FILLER_0_28
*178 FILLER_0_35
*179 FILLER_0_53
*180 FILLER_0_60
*181 FILLER_0_64
*182 FILLER_0_69
*183 FILLER_0_7
*184 FILLER_0_76
*185 FILLER_0_83
*186 FILLER_0_90
*187 FILLER_0_95
*188 FILLER_10_0
*189 FILLER_10_105
*190 FILLER_10_14
*191 FILLER_10_21
*192 FILLER_10_23
*193 FILLER_10_7
*194 FILLER_10_81
*195 FILLER_10_85
*196 FILLER_10_94
*197 FILLER_10_98
*198 FILLER_11_0
*199 FILLER_11_109
*200 FILLER_11_14
*201 FILLER_11_143
*202 FILLER_11_21
*203 FILLER_11_23
*204 FILLER_11_36
*205 FILLER_11_43
*206 FILLER_11_47
*207 FILLER_11_7
*208 FILLER_11_80
*209 FILLER_12_0
*210 FILLER_12_103
*211 FILLER_12_135
*212 FILLER_12_14
*213 FILLER_12_142
*214 FILLER_12_21
*215 FILLER_12_28
*216 FILLER_12_35
*217 FILLER_12_39
*218 FILLER_12_57
*219 FILLER_12_63
*220 FILLER_12_7
*221 FILLER_12_73
*222 FILLER_12_80
*223 FILLER_12_92
*224 FILLER_13_11
*225 FILLER_13_124
*226 FILLER_13_131
*227 FILLER_13_138
*228 FILLER_13_15
*229 FILLER_13_4
*230 FILLER_13_70
*231 FILLER_14_27
*232 FILLER_14_55
*233 FILLER_15_0
*234 FILLER_15_132
*235 FILLER_15_139
*236 FILLER_15_143
*237 FILLER_15_16
*238 FILLER_15_31
*239 FILLER_15_4
*240 FILLER_15_59
*241 FILLER_15_63
*242 FILLER_15_68
*243 FILLER_15_9
*244 FILLER_15_99
*245 FILLER_16_0
*246 FILLER_16_114
*247 FILLER_16_124
*248 FILLER_16_131
*249 FILLER_16_138
*250 FILLER_16_14
*251 FILLER_16_142
*252 FILLER_16_21
*253 FILLER_16_28
*254 FILLER_16_35
*255 FILLER_16_42
*256 FILLER_16_46
*257 FILLER_16_52
*258 FILLER_16_59
*259 FILLER_16_7
*260 FILLER_16_81
*261 FILLER_16_90
*262 FILLER_1_0
*263 FILLER_1_109
*264 FILLER_1_116
*265 FILLER_1_123
*266 FILLER_1_130
*267 FILLER_1_137
*268 FILLER_1_14
*269 FILLER_1_21
*270 FILLER_1_25
*271 FILLER_1_53
*272 FILLER_1_7
*273 FILLER_2_0
*274 FILLER_2_112
*275 FILLER_2_119
*276 FILLER_2_126
*277 FILLER_2_133
*278 FILLER_2_140
*279 FILLER_2_41
*280 FILLER_2_7
*281 FILLER_3_0
*282 FILLER_3_121
*283 FILLER_3_128
*284 FILLER_3_135
*285 FILLER_3_14
*286 FILLER_3_142
*287 FILLER_3_56
*288 FILLER_3_65
*289 FILLER_3_7
*290 FILLER_3_90
*291 FILLER_4_0
*292 FILLER_4_100
*293 FILLER_4_102
*294 FILLER_4_139
*295 FILLER_4_30
*296 FILLER_4_48
*297 FILLER_4_59
*298 FILLER_4_65
*299 FILLER_4_7
*300 FILLER_4_88
*301 FILLER_4_9
*302 FILLER_4_90
*303 FILLER_5_0
*304 FILLER_5_115
*305 FILLER_5_2
*306 FILLER_5_31
*307 FILLER_6_0
*308 FILLER_6_100
*309 FILLER_6_102
*310 FILLER_6_12
*311 FILLER_6_130
*312 FILLER_6_137
*313 FILLER_6_19
*314 FILLER_6_30
*315 FILLER_6_37
*316 FILLER_6_39
*317 FILLER_6_7
*318 FILLER_6_75
*319 FILLER_7_0
*320 FILLER_7_102
*321 FILLER_7_104
*322 FILLER_7_114
*323 FILLER_7_116
*324 FILLER_7_130
*325 FILLER_7_137
*326 FILLER_7_14
*327 FILLER_7_7
*328 FILLER_7_87
*329 FILLER_8_0
*330 FILLER_8_120
*331 FILLER_8_127
*332 FILLER_8_134
*333 FILLER_8_141
*334 FILLER_8_143
*335 FILLER_8_32
*336 FILLER_8_4
*337 FILLER_8_72
*338 FILLER_8_74
*339 FILLER_8_88
*340 FILLER_9_0
*341 FILLER_9_103
*342 FILLER_9_107
*343 FILLER_9_116
*344 FILLER_9_14
*345 FILLER_9_7
*346 FILLER_9_86
*347 FILLER_9_9
*348 FILLER_9_95
*349 _082_
*350 _083_
*351 _084_
*352 _085_
*353 _086_
*354 _087_
*355 _088_
*356 _089_
*357 _090_
*358 _091_
*359 _092_
*360 _093_
*361 _094_
*362 _095_
*363 _096_
*364 _097_
*365 _098_
*366 _099_
*367 _100_
*368 _101_
*369 _102_
*370 _103_
*371 _104_
*372 _105_
*373 _106_
*374 _107_
*375 _108_
*376 _109_
*377 _110_
*378 _111_
*379 _112_
*380 _113_
*381 _114_
*382 _115_
*383 _116_
*384 _117_
*385 _118_
*386 _119_
*387 _120_
*388 _121_
*389 _122_
*390 _123_
*391 _124_
*392 _125_
*393 _126_
*394 _127_
*395 _128_
*396 _129_
*397 _130_
*398 _131_
*399 _132_
*400 _133_
*401 _134_
*402 _135_
*403 _136_
*404 _136__6
*405 _137_
*406 _137__7
*407 _138_
*408 _138__8
*409 _139_
*410 _139__9
*411 _140_
*412 _140__31
*413 _141_
*414 _141__5
*415 _142_
*416 _142__20
*417 _143_
*418 _143__18
*419 _144_
*420 _144__16
*421 _145_
*422 _145__14
*423 _146_
*424 _146__12
*425 _147_
*426 _147__11
*427 _148_
*428 _148__10
*429 _149_
*430 _149__4
*431 _150_
*432 _150__30
*433 _151_
*434 _151__29
*435 _152_
*436 _152__28
*437 _153_
*438 _153__27
*439 _154_
*440 _154__26
*441 _155_
*442 _155__25
*443 _156_
*444 _156__24
*445 _157_
*446 _157__23
*447 _158_
*448 _158__22
*449 _159_
*450 _159__21
*451 _160_
*452 _160__19
*453 _161_
*454 _161__17
*455 _162_
*456 _162__13
*457 _163_
*458 _163__15
*459 clkbuf_0_clk
*460 clkbuf_2_0__f_clk
*461 clkbuf_2_1__f_clk
*462 clkbuf_2_2__f_clk
*463 clkbuf_2_3__f_clk
*464 clkload0
*465 clkload1
*466 hold1
*467 hold10
*468 hold11
*469 hold12
*470 hold13
*471 hold14
*472 hold15
*473 hold16
*474 hold17
*475 hold18
*476 hold19
*477 hold2
*478 hold20
*479 hold21
*480 hold22
*481 hold23
*482 hold24
*483 hold25
*484 hold26
*485 hold27
*486 hold28
*487 hold29
*488 hold3
*489 hold30
*490 hold31
*491 hold32
*492 hold33
*493 hold34
*494 hold35
*495 hold36
*496 hold37
*497 hold38
*498 hold39
*499 hold4
*500 hold40
*501 hold41
*502 hold42
*503 hold43
*504 hold44
*505 hold45
*506 hold5
*507 hold6
*508 hold7
*509 hold8
*510 hold9
*511 input1
*512 output2
*513 output3

*PORTS
clk I
env_bit O
env_valid O
spad_hit_async I

*D_NET *3 0.00761413
*CONN
*P clk I
*I *459:A I *D sg13g2_buf_8
*CAP
1 clk 0.00202512
2 *459:A 0.00105243
3 *3:11 0.00307755
4 *459:A *356:A 0
5 *459:A *389:A 8.00842e-05
6 *459:A *390:A 0
7 *459:A *437:RESET_B 0
8 *459:A *437:D 0.000760094
9 *459:A *445:CLK 4.77702e-05
10 *459:A *470:A 0.000209614
11 *459:A *21:10 0
12 *459:A *37:10 0
13 *459:A *40:27 0
14 *459:A *81:14 0
15 *3:11 *349:A 0
16 *3:11 *427:D 0
17 *3:11 *34:29 0
18 *3:11 *37:45 0
19 *3:11 *58:10 0.000182121
20 *3:11 *95:17 0
21 *3:11 *95:51 0
22 *3:11 *158:18 0.000179352
*RES
1 clk *3:11 40.394 
2 *3:11 *459:A 30.5169 
*END

*D_NET *4 0.000412577
*CONN
*P env_bit O
*I *512:X O *D sg13g2_buf_1
*CAP
1 env_bit 0.000206289
2 *512:X 0.000206289
3 env_bit *165:20 0
*RES
1 *512:X env_bit 42.3175 
*END

*D_NET *5 0.00027006
*CONN
*P env_valid O
*I *513:X O *D sg13g2_buf_1
*CAP
1 env_valid 0.00013503
2 *513:X 0.00013503
*RES
1 *513:X env_valid 41.7819 
*END

*D_NET *6 0.000495788
*CONN
*P spad_hit_async I
*I *511:A I *D sg13g2_buf_1
*CAP
1 spad_hit_async 0.000247894
2 *511:A 0.000247894
*RES
1 spad_hit_async *511:A 42.9252 
*END

*D_NET *7 0.00127214
*CONN
*I *411:D I *D sg13g2_dfrbpq_1
*I *364:Y O *D sg13g2_nor2b_1
*CAP
1 *411:D 0.00027997
2 *364:Y 0.000128206
3 *7:8 0.000408176
4 *411:D *409:CLK 0
5 *411:D *477:A 0.000455788
6 *411:D *92:12 0
7 *411:D *92:25 0
8 *7:8 *92:25 0
*RES
1 *364:Y *7:8 41.339 
2 *7:8 *411:D 43.1312 
*END

*D_NET *8 0.000232359
*CONN
*I *413:D I *D sg13g2_dfrbpq_2
*I *363:Y O *D sg13g2_nor2_1
*CAP
1 *413:D 0.000108451
2 *363:Y 0.000108451
3 *413:D *351:A 0
4 *413:D *363:A 0
5 *413:D *363:B 1.54556e-05
*RES
1 *363:Y *413:D 41.133 
*END

*D_NET *9 0.000368909
*CONN
*I *473:A I *D sg13g2_dlygate4sd3_1
*I *370:X O *D sg13g2_xor2_1
*CAP
1 *473:A 0.000184454
2 *370:X 0.000184454
3 *473:A *61:52 0
4 *473:A *106:24 0
5 *473:A *146:12 0
*RES
1 *370:X *473:A 41.9982 
*END

*D_NET *10 0.000996911
*CONN
*I *415:D I *D sg13g2_dfrbpq_2
*I *372:Y O *D sg13g2_nor2_1
*CAP
1 *415:D 0
2 *372:Y 0.000377349
3 *10:10 0.000377349
4 *10:10 *372:A 0
5 *10:10 *75:10 0
6 *10:10 *147:6 0.000242213
*RES
1 *372:Y *10:10 44.1921 
2 *10:10 *415:D 40 
*END

*D_NET *11 0.00133231
*CONN
*I *500:A I *D sg13g2_dlygate4sd3_1
*I *375:Y O *D sg13g2_nor3_1
*CAP
1 *500:A 0.000399668
2 *375:Y 0.000399668
3 *500:A *375:B 0.000532974
4 *500:A *421:CLK 0
5 *500:A *65:21 0
6 *500:A *94:14 0
7 *500:A *144:10 0
*RES
1 *375:Y *500:A 44.6556 
*END

*D_NET *12 0.00302911
*CONN
*I *419:D I *D sg13g2_dfrbpq_1
*I *378:Y O *D sg13g2_nor3_1
*CAP
1 *419:D 0
2 *378:Y 0.00102167
3 *12:10 0.00102167
4 *12:10 *378:A 0.000663385
5 *12:10 *378:B 0.000242213
6 *12:10 *378:C 0
7 *12:10 *421:CLK 0
8 *12:10 *497:A 0
9 *12:10 *499:A 0
10 *12:10 *46:10 8.0185e-05
11 *12:10 *54:12 0
12 *12:10 *144:14 0
*RES
1 *378:Y *12:10 30.0734 
2 *12:10 *419:D 20 
*END

*D_NET *13 0.000726059
*CONN
*I *421:D I *D sg13g2_dfrbpq_1
*I *381:Y O *D sg13g2_inv_1
*CAP
1 *421:D 0.000169003
2 *381:Y 0.000194027
3 *13:8 0.00036303
4 *421:D *421:RESET_B 0
5 *421:D *167:14 0
6 *13:8 *61:37 0
*RES
1 *381:Y *13:8 42.3278 
2 *13:8 *421:D 41.7454 
*END

*D_NET *14 0.000614509
*CONN
*I *423:D I *D sg13g2_dfrbpq_2
*I *349:Y O *D sg13g2_inv_1
*CAP
1 *423:D 0.000155885
2 *349:Y 0.00015137
3 *14:8 0.000307255
4 *423:D *423:RESET_B 0
*RES
1 *349:Y *14:8 41.8334 
2 *14:8 *423:D 41.6171 
*END

*D_NET *15 0.00336166
*CONN
*I *425:D I *D sg13g2_dfrbpq_1
*I *382:X O *D sg13g2_xor2_1
*CAP
1 *425:D 0.000563326
2 *382:X 0.000339074
3 *15:10 0.000902399
4 *425:D *423:RESET_B 0
5 *425:D *425:RESET_B 0.000660736
6 *425:D *451:CLK 0
7 *15:10 *423:CLK 0.000128565
8 *15:10 *62:58 0.000767563
*RES
1 *382:X *15:10 44.9028 
2 *15:10 *425:D 46.3757 
*END

*D_NET *16 0.00361885
*CONN
*I *427:D I *D sg13g2_dfrbpq_1
*I *384:X O *D sg13g2_and2_1
*CAP
1 *427:D 0.000992405
2 *384:X 0.000327727
3 *16:12 0.00132013
4 *427:D *34:29 0
5 *427:D *67:10 0.000238242
6 *427:D *116:31 2.18722e-06
7 *427:D *158:10 0
8 *427:D *159:8 0.000336832
9 *16:12 *354:B 0
10 *16:12 *34:29 0.000401322
11 *16:12 *37:19 0
12 *16:12 *116:31 0
13 *3:11 *427:D 0
*RES
1 *384:X *16:12 43.4299 
2 *16:12 *427:D 49.4039 
*END

*D_NET *17 0.00015172
*CONN
*I *510:A I *D sg13g2_dlygate4sd3_1
*I *385:Y O *D sg13g2_xnor2_1
*CAP
1 *510:A 7.586e-05
2 *385:Y 7.586e-05
*RES
1 *385:Y *510:A 40.9167 
*END

*D_NET *18 0.0013782
*CONN
*I *483:A I *D sg13g2_dlygate4sd3_1
*I *386:X O *D sg13g2_xor2_1
*CAP
1 *483:A 0
2 *386:X 0.000426688
3 *18:10 0.000426688
4 *18:10 *354:B 0.000111999
5 *18:10 *355:B 0.000235971
6 *18:10 *355:D 0
7 *18:10 *35:19 0
8 *18:10 *116:12 0.000129163
9 *18:10 *116:31 4.76973e-05
10 *18:10 *138:8 0
*RES
1 *386:X *18:10 45.0573 
2 *18:10 *483:A 40 
*END

*D_NET *19 0.000252718
*CONN
*I *490:A I *D sg13g2_dlygate4sd3_1
*I *387:X O *D sg13g2_xor2_1
*CAP
1 *490:A 0.000102488
2 *387:X 0.000102488
3 *490:A *435:D 4.77425e-05
*RES
1 *387:X *490:A 41.1639 
*END

*D_NET *20 0.00120496
*CONN
*I *435:D I *D sg13g2_dfrbpq_1
*I *389:X O *D sg13g2_and2_1
*CAP
1 *435:D 0.000457467
2 *389:X 0.000457467
3 *435:D *433:D 0.000242282
4 *435:D *435:RESET_B 0
5 *435:D *437:RESET_B 0
6 *435:D *38:10 0
7 *490:A *435:D 4.77425e-05
*RES
1 *389:X *435:D 45.0058 
*END

*D_NET *21 0.00324924
*CONN
*I *508:A I *D sg13g2_dlygate4sd3_1
*I *390:Y O *D sg13g2_xnor2_1
*CAP
1 *508:A 0
2 *390:Y 0.000935441
3 *21:10 0.000935441
4 *21:10 *360:D 0.000566111
5 *21:10 *390:A 0
6 *21:10 *445:CLK 4.79124e-05
7 *21:10 *470:A 0.000209756
8 *21:10 *471:A 0
9 *21:10 *40:27 0
10 *21:10 *41:8 0.000554579
11 *21:10 *61:8 0
12 *459:A *21:10 0
*RES
1 *390:Y *21:10 49.8159 
2 *21:10 *508:A 40 
*END

*D_NET *22 0.00268211
*CONN
*I *487:A I *D sg13g2_dlygate4sd3_1
*I *391:X O *D sg13g2_xor2_1
*CAP
1 *487:A 0.000816768
2 *391:X 0.000343651
3 *22:8 0.00116042
4 *487:A *357:B 0.000143351
5 *487:A *439:RESET_B 0
6 *487:A *439:D 0
7 *487:A *474:A 0
8 *487:A *39:8 0
9 *487:A *108:10 0.000143351
10 *487:A *109:16 0
11 *22:8 *391:B 7.45666e-05
*RES
1 *391:X *22:8 42.575 
2 *22:8 *487:A 48.4672 
*END

*D_NET *23 0.00312152
*CONN
*I *476:A I *D sg13g2_dlygate4sd3_1
*I *393:Y O *D sg13g2_nor2_1
*CAP
1 *476:A 0.000174223
2 *393:Y 0.000922028
3 *23:8 0.00109625
4 *476:A *39:10 0
5 *476:A *59:12 0.000234726
6 *476:A *64:8 0
7 *23:8 *393:B 8.0185e-05
8 *23:8 *394:A 0
9 *23:8 *441:D 0
10 *23:8 *443:RESET_B 0
11 *23:8 *443:CLK 0.000306984
12 *23:8 *462:A 0
13 *23:8 *465:A 0
14 *23:8 *489:A 0
15 *23:8 *494:A 0
16 *23:8 *507:A 0.000307127
17 *23:8 *64:49 0
*RES
1 *393:Y *23:8 49.3159 
2 *23:8 *476:A 42.3278 
*END

*D_NET *24 0.00128108
*CONN
*I *494:A I *D sg13g2_dlygate4sd3_1
*I *394:X O *D sg13g2_xor2_1
*CAP
1 *494:A 0.00061667
2 *394:X 0.00061667
3 *494:A *359:A 0
4 *494:A *394:B 4.77425e-05
5 *494:A *394:A 0
6 *494:A *443:RESET_B 0
7 *494:A *443:D 0
8 *494:A *40:27 0
9 *494:A *157:10 0
10 *23:8 *494:A 0
*RES
1 *394:X *494:A 46.6023 
*END

*D_NET *25 0.00305478
*CONN
*I *471:A I *D sg13g2_dlygate4sd3_1
*I *396:Y O *D sg13g2_nor2_1
*CAP
1 *471:A 0.000176998
2 *396:Y 0.00064239
3 *25:10 0.000819388
4 *471:A *360:D 0.00027467
5 *471:A *81:14 0
6 *471:A *96:18 4.77425e-05
7 *25:10 *362:B 0.000181608
8 *25:10 *26:10 0
9 *25:10 *32:8 0
10 *25:10 *40:10 0
11 *25:10 *44:14 0.000287672
12 *25:10 *96:18 0.000608855
13 *25:10 *118:12 1.54556e-05
14 *25:10 *154:10 0
15 *25:10 *156:39 0
16 *21:10 *471:A 0
*RES
1 *396:Y *25:10 47.1894 
2 *25:10 *471:A 42.0497 
*END

*D_NET *26 0.00131096
*CONN
*I *485:A I *D sg13g2_dlygate4sd3_1
*I *397:X O *D sg13g2_xor2_1
*CAP
1 *485:A 0
2 *397:X 0.000615367
3 *26:10 0.000615367
4 *26:10 *401:A 8.02267e-05
5 *26:10 *460:A 0
6 *26:10 *61:8 0
7 *26:10 *112:12 0
8 *26:10 *118:12 0
9 *26:10 *118:39 0
10 *26:10 *156:39 0
11 *25:10 *26:10 0
*RES
1 *397:X *26:10 45.7645 
2 *26:10 *485:A 40 
*END

*D_NET *27 0.000472032
*CONN
*I *449:D I *D sg13g2_dfrbpq_1
*I *399:X O *D sg13g2_and2_1
*CAP
1 *449:D 0.000147295
2 *399:X 0.000147295
3 *449:D *400:B 0
4 *449:D *481:A 0.000177442
*RES
1 *399:X *449:D 41.5347 
*END

*D_NET *28 0.00103102
*CONN
*I *481:A I *D sg13g2_dlygate4sd3_1
*I *400:Y O *D sg13g2_xnor2_1
*CAP
1 *481:A 0.000354297
2 *400:Y 0.000354297
3 *481:A *400:B 0.000144985
4 *481:A *43:18 0
5 *449:D *481:A 0.000177442
*RES
1 *400:Y *481:A 44.1303 
*END

*D_NET *29 0.00115656
*CONN
*I *468:A I *D sg13g2_dlygate4sd3_1
*I *401:Y O *D sg13g2_xnor2_1
*CAP
1 *468:A 0
2 *401:Y 0.000224741
3 *29:10 0.000224741
4 *29:10 *44:29 0.000497971
5 *29:10 *112:12 0.00020911
6 *29:10 *156:39 0
*RES
1 *401:Y *29:10 42.987 
2 *29:10 *468:A 40 
*END

*D_NET *30 0.00191713
*CONN
*I *455:D I *D sg13g2_dfrbpq_1
*I *402:X O *D sg13g2_mux2_1
*CAP
1 *455:D 0
2 *402:X 0.000654136
3 *30:10 0.000654136
4 *30:10 *403:RESET_B 0
5 *30:10 *455:CLK 0
6 *30:10 *49:10 0.000608855
7 *30:10 *65:64 0
8 *30:10 *106:24 0
9 *30:10 *142:6 0
*RES
1 *402:X *30:10 47.931 
2 *30:10 *455:D 40 
*END

*D_NET *31 0.000865867
*CONN
*I *399:B I *D sg13g2_and2_1
*I *398:X O *D sg13g2_a21o_1
*CAP
1 *399:B 0
2 *398:X 0.000432933
3 *31:10 0.000432933
4 *31:10 *398:A2 0
5 *31:10 *43:14 0
6 *31:10 *79:10 0
*RES
1 *398:X *31:10 43.605 
2 *31:10 *399:B 40 
*END

*D_NET *32 0.00397468
*CONN
*I *356:A I *D sg13g2_nor2_1
*I *358:A I *D sg13g2_nor3_1
*I *360:A I *D sg13g2_nor4_2
*I *350:Y O *D sg13g2_inv_1
*CAP
1 *356:A 0.000532951
2 *358:A 9.1466e-05
3 *360:A 0
4 *350:Y 0.000178348
5 *32:23 0.000847737
6 *32:12 0.000382474
7 *32:8 0.000337502
8 *356:A *358:C 0.000212558
9 *356:A *437:RESET_B 0
10 *356:A *37:27 0.000180636
11 *356:A *39:10 0.00081786
12 *356:A *64:14 0
13 *356:A *64:49 0
14 *358:A *358:C 7.45698e-05
15 *358:A *37:27 0.000126859
16 *32:8 *362:B 0.000128576
17 *32:8 *42:23 0
18 *32:12 *390:A 0
19 *32:12 *96:18 0
20 *32:12 *156:39 0
21 *32:23 *358:C 1.54008e-05
22 *32:23 *360:B 0
23 *32:23 *40:10 0
24 *32:23 *81:14 0
25 *32:23 *104:10 4.77425e-05
26 *459:A *356:A 0
27 *25:10 *32:8 0
*RES
1 *350:Y *32:8 41.8334 
2 *32:8 *32:12 21.3355 
3 *32:12 *360:A 20 
4 *32:12 *32:23 22.1836 
5 *32:23 *358:A 41.0918 
6 *32:23 *356:A 47.0658 
*END

*D_NET *33 0.000451026
*CONN
*I *363:A I *D sg13g2_nor2_1
*I *351:Y O *D sg13g2_inv_1
*CAP
1 *363:A 0.000225513
2 *351:Y 0.000225513
3 *363:A *351:A 0
4 *363:A *363:B 0
5 *363:A *461:A 0
6 *363:A *478:A 0
7 *413:D *363:A 0
*RES
1 *351:Y *363:A 42.5647 
*END

*D_NET *34 0.00505149
*CONN
*I *384:A I *D sg13g2_and2_1
*I *385:B I *D sg13g2_xnor2_1
*I *352:Y O *D sg13g2_nand3_1
*CAP
1 *384:A 4.98795e-05
2 *385:B 0
3 *352:Y 0
4 *34:29 0.001025
5 *34:14 0.000583164
6 *34:4 0.00155829
7 *384:A *44:8 0
8 *34:14 *352:C 0
9 *34:14 *385:A 0.000533939
10 *34:14 *431:CLK 0
11 *34:14 *509:A 0
12 *34:14 *62:12 0
13 *34:14 *95:63 4.75165e-05
14 *34:14 *116:12 0
15 *34:14 *158:10 0
16 *34:29 *352:B 0
17 *34:29 *383:B1 0
18 *34:29 *384:B 7.96848e-05
19 *34:29 *505:A 0
20 *34:29 *37:27 0
21 *34:29 *62:8 0
22 *34:29 *95:63 0.000109402
23 *34:29 *158:10 0
24 *34:29 *158:18 0.000325176
25 *34:29 *159:8 0.000338115
26 *427:D *34:29 0
27 *3:11 *34:29 0
28 *16:12 *34:29 0.000401322
*RES
1 *352:Y *34:4 20 
2 *34:4 *34:14 46.3345 
3 *34:14 *385:B 20 
4 *34:4 *34:29 49.8571 
5 *34:29 *384:A 20.5974 
*END

*D_NET *35 0.00209973
*CONN
*I *355:D I *D sg13g2_nand4_1
*I *354:B I *D sg13g2_and2_1
*I *386:B I *D sg13g2_xor2_1
*I *353:X O *D sg13g2_and4_1
*CAP
1 *355:D 0.000242452
2 *354:B 0.00029269
3 *386:B 6.52271e-05
4 *353:X 0.000160465
5 *35:19 0.000615962
6 *35:8 0.000306513
7 *354:B *355:C 0
8 *354:B *36:8 0
9 *354:B *37:10 0
10 *354:B *37:19 0
11 *354:B *116:31 7.92702e-05
12 *355:D *355:C 0.000209756
13 *386:B *116:12 0
14 *386:B *116:31 1.54008e-05
15 *35:8 *116:12 0
16 *35:19 *116:12 0
17 *16:12 *354:B 0
18 *18:10 *354:B 0.000111999
19 *18:10 *355:D 0
20 *18:10 *35:19 0
*RES
1 *353:X *35:8 41.5862 
2 *35:8 *386:B 40.5356 
3 *35:8 *35:19 0.8446 
4 *35:19 *354:B 43.0694 
5 *35:19 *355:D 42.678 
*END

*D_NET *36 0.00171688
*CONN
*I *388:A2 I *D sg13g2_a21o_1
*I *387:B I *D sg13g2_xor2_1
*I *354:X O *D sg13g2_and2_1
*CAP
1 *388:A2 0
2 *387:B 0
3 *354:X 0.000159707
4 *36:16 0.000202101
5 *36:8 0.000361808
6 *36:8 *37:10 0
7 *36:16 *388:A1 0.000174556
8 *36:16 *123:10 0.000160695
9 *36:16 *123:12 0.000209973
10 *36:16 *138:8 0.000448044
11 *354:B *36:8 0
*RES
1 *354:X *36:8 21.3818 
2 *36:8 *36:16 43.2599 
3 *36:16 *387:B 20 
4 *36:8 *388:A2 20 
*END

*D_NET *37 0.00460671
*CONN
*I *356:B I *D sg13g2_nor2_1
*I *389:A I *D sg13g2_and2_1
*I *360:B I *D sg13g2_nor4_2
*I *358:B I *D sg13g2_nor3_1
*I *390:B I *D sg13g2_xnor2_1
*I *355:Y O *D sg13g2_nand4_1
*CAP
1 *356:B 0.000246965
2 *389:A 4.37077e-05
3 *360:B 0.000178228
4 *358:B 0
5 *390:B 0
6 *355:Y 0.000422646
7 *37:45 0.000461008
8 *37:27 0.000107856
9 *37:19 0.000564416
10 *37:10 0.000871313
11 *356:B *39:10 0
12 *360:B *360:C 0.000242071
13 *389:A *389:B 8.00842e-05
14 *37:10 *355:A 0.000436188
15 *37:10 *390:A 1.54008e-05
16 *37:10 *431:D 0
17 *37:10 *58:10 0.000272573
18 *37:19 *360:C 8.00842e-05
19 *37:19 *390:A 0
20 *37:27 *358:C 1.54008e-05
21 *37:27 *104:10 0.000181192
22 *37:45 *39:10 0
23 *37:45 *58:10 0
24 *354:B *37:10 0
25 *354:B *37:19 0
26 *356:A *37:27 0.000180636
27 *358:A *37:27 0.000126859
28 *459:A *389:A 8.00842e-05
29 *459:A *37:10 0
30 *3:11 *37:45 0
31 *16:12 *37:19 0
32 *32:23 *360:B 0
33 *34:29 *37:27 0
34 *36:8 *37:10 0
*RES
1 *355:Y *37:10 24.8822 
2 *37:10 *390:B 20 
3 *37:10 *37:19 2.8325 
4 *37:19 *37:27 41.6583 
5 *37:27 *358:B 20 
6 *37:19 *360:B 21.9673 
7 *37:10 *37:45 21.5862 
8 *37:45 *389:A 40.5356 
9 *37:45 *356:B 42.8222 
*END

*D_NET *38 0.00248026
*CONN
*I *391:B I *D sg13g2_xor2_1
*I *392:A2 I *D sg13g2_a21oi_1
*I *356:Y O *D sg13g2_nor2_1
*CAP
1 *391:B 0.000201963
2 *392:A2 0
3 *356:Y 0.000538693
4 *38:10 0.000740657
5 *391:B *392:B1 0.00023333
6 *391:B *163:8 0
7 *38:10 *123:10 0.000344563
8 *38:10 *138:8 0.000346491
9 *38:10 *163:8 0
10 *435:D *38:10 0
11 *22:8 *391:B 7.45666e-05
*RES
1 *356:Y *38:10 46.2006 
2 *38:10 *392:A2 40 
3 *38:10 *391:B 42.472 
*END

*D_NET *39 0.00615398
*CONN
*I *360:C I *D sg13g2_nor4_2
*I *358:C I *D sg13g2_nor3_1
*I *357:Y O *D sg13g2_nand2_1
*CAP
1 *360:C 0.000167821
2 *358:C 0.000121764
3 *357:Y 0.000386837
4 *39:10 0.00115314
5 *39:8 0.0012504
6 *360:C *390:A 0.000306869
7 *39:8 *357:B 0.000175693
8 *39:8 *465:A 0
9 *39:8 *109:16 0
10 *39:10 *59:12 0
11 *39:10 *64:8 0.000662311
12 *39:10 *64:14 0.000342631
13 *39:10 *64:88 0.000128565
14 *356:A *358:C 0.000212558
15 *356:A *39:10 0.00081786
16 *356:B *39:10 0
17 *358:A *358:C 7.45698e-05
18 *360:B *360:C 0.000242071
19 *476:A *39:10 0
20 *487:A *39:8 0
21 *32:23 *358:C 1.54008e-05
22 *37:19 *360:C 8.00842e-05
23 *37:27 *358:C 1.54008e-05
24 *37:45 *39:10 0
*RES
1 *357:Y *39:8 43.5638 
2 *39:8 *39:10 12.2158 
3 *39:10 *358:C 41.6583 
4 *39:10 *360:C 42.0497 
*END

*D_NET *40 0.00444931
*CONN
*I *393:A I *D sg13g2_nor2_1
*I *394:B I *D sg13g2_xor2_1
*I *395:A2 I *D sg13g2_a21oi_1
*I *358:Y O *D sg13g2_nor3_1
*CAP
1 *393:A 0.000192737
2 *394:B 2.96211e-05
3 *395:A2 0
4 *358:Y 0.000576597
5 *40:27 0.00104458
6 *40:12 0.00082222
7 *40:10 0.000576597
8 *393:A *359:B 0
9 *393:A *61:37 0.000554907
10 *393:A *127:10 0
11 *40:10 *42:8 0
12 *40:10 *42:12 8.01995e-05
13 *40:10 *42:23 1.54282e-05
14 *40:10 *60:8 0
15 *40:27 *359:A 0
16 *40:27 *359:B 0
17 *40:27 *395:A1 0.000144875
18 *40:27 *437:D 0
19 *40:27 *41:8 0
20 *40:27 *61:37 0.000288587
21 *40:27 *157:10 7.52158e-05
22 *459:A *40:27 0
23 *494:A *394:B 4.77425e-05
24 *494:A *40:27 0
25 *21:10 *40:27 0
26 *25:10 *40:10 0
27 *32:23 *40:10 0
*RES
1 *358:Y *40:10 45.2118 
2 *40:10 *40:12 20 
3 *40:12 *395:A2 20 
4 *40:12 *40:27 28.8489 
5 *40:27 *394:B 40.3193 
6 *40:27 *393:A 42.8943 
*END

*D_NET *41 0.00266517
*CONN
*I *360:D I *D sg13g2_nor4_2
*I *359:Y O *D sg13g2_nand2_1
*CAP
1 *360:D 0.000326682
2 *359:Y 0.000251955
3 *41:8 0.000578636
4 *360:D *390:A 0.000112541
5 *360:D *96:18 0
6 *41:8 *445:CLK 0
7 *471:A *360:D 0.00027467
8 *21:10 *360:D 0.000566111
9 *21:10 *41:8 0.000554579
10 *40:27 *41:8 0
*RES
1 *359:Y *41:8 43.5638 
2 *41:8 *360:D 43.7801 
*END

*D_NET *42 0.00441918
*CONN
*I *397:B I *D sg13g2_xor2_1
*I *396:A I *D sg13g2_nor2_1
*I *398:A2 I *D sg13g2_a21o_1
*I *361:C I *D sg13g2_nand3_1
*I *362:D I *D sg13g2_nand4_1
*I *360:Y O *D sg13g2_nor4_2
*CAP
1 *397:B 4.08322e-05
2 *396:A 2.60565e-05
3 *398:A2 0.000762261
4 *361:C 2.67403e-05
5 *362:D 0
6 *360:Y 0.000177118
7 *42:29 0.000831663
8 *42:25 0.000189935
9 *42:23 0.000372232
10 *42:12 0.000260067
11 *42:8 0.000227002
12 *361:C *447:CLK 0
13 *361:C *460:A 4.77425e-05
14 *396:A *460:A 4.77425e-05
15 *396:A *118:12 4.77425e-05
16 *398:A2 *447:CLK 0
17 *398:A2 *460:A 0.000488272
18 *398:A2 *461:A 4.96091e-05
19 *398:A2 *43:14 0
20 *42:8 *104:10 0
21 *42:12 *362:B 0
22 *42:12 *156:39 1.54282e-05
23 *42:23 *362:B 0
24 *42:23 *362:A 0
25 *42:23 *397:A 0.000159183
26 *42:23 *104:10 0
27 *42:23 *156:39 3.23417e-05
28 *42:25 *361:B 5.30319e-05
29 *42:25 *397:A 0.000340704
30 *42:25 *154:10 0
31 *42:29 *361:B 0.000127853
32 *31:10 *398:A2 0
33 *32:8 *42:23 0
34 *40:10 *42:8 0
35 *40:10 *42:12 8.01995e-05
36 *40:10 *42:23 1.54282e-05
*RES
1 *360:Y *42:8 41.5862 
2 *42:8 *42:12 20.5356 
3 *42:12 *362:D 20 
4 *42:12 *42:23 22.6471 
5 *42:23 *42:25 1.8334 
6 *42:25 *42:29 20.5974 
7 *42:29 *361:C 20.3193 
8 *42:29 *398:A2 28.1035 
9 *42:25 *396:A 40.3193 
10 *42:23 *397:B 40.3193 
*END

*D_NET *43 0.00324896
*CONN
*I *399:A I *D sg13g2_and2_1
*I *400:B I *D sg13g2_xnor2_1
*I *361:Y O *D sg13g2_nand3_1
*CAP
1 *399:A 0
2 *400:B 0.000488313
3 *361:Y 0.000863567
4 *43:18 0.000583936
5 *43:14 0.00095919
6 *400:B *400:A 0
7 *43:14 *447:CLK 0
8 *43:14 *480:A 0
9 *43:14 *119:10 0.000208968
10 *398:A2 *43:14 0
11 *449:D *400:B 0
12 *481:A *400:B 0.000144985
13 *481:A *43:18 0
14 *31:10 *43:14 0
*RES
1 *361:Y *43:14 48.3533 
2 *43:14 *43:18 20.9682 
3 *43:18 *400:B 25.562 
4 *43:18 *399:A 20 
*END

*D_NET *44 0.00246973
*CONN
*I *479:A I *D sg13g2_dlygate4sd3_1
*I *401:B I *D sg13g2_xnor2_1
*I *362:Y O *D sg13g2_nand4_1
*CAP
1 *479:A 0
2 *401:B 0
3 *362:Y 0.000237126
4 *44:29 0.00050347
5 *44:14 0.000101447
6 *44:8 0.000842043
7 *44:8 *362:B 0
8 *44:8 *112:12 0
9 *44:29 *445:D 0
10 *44:29 *453:D 0
11 *44:29 *61:8 0
12 *44:29 *81:14 0
13 *44:29 *96:18 0
14 *44:29 *112:12 0
15 *384:A *44:8 0
16 *25:10 *44:14 0.000287672
17 *29:10 *44:29 0.000497971
*RES
1 *362:Y *44:8 22.2145 
2 *44:8 *44:14 41.339 
3 *44:14 *401:B 20 
4 *44:8 *44:29 45.6856 
5 *44:29 *479:A 20 
*END

*D_NET *45 0.000750374
*CONN
*I *367:A I *D sg13g2_xnor2_1
*I *365:X O *D sg13g2_xor2_1
*CAP
1 *367:A 0.000311046
2 *365:X 0.000311046
3 *367:A *365:B 4.79124e-05
4 *367:A *367:B 0
5 *367:A *403:RESET_B 8.03692e-05
6 *367:A *457:D 0
7 *367:A *65:64 0
*RES
1 *365:X *367:A 43.6771 
*END

*D_NET *46 0.00162383
*CONN
*I *367:B I *D sg13g2_xnor2_1
*I *366:Y O *D sg13g2_xnor2_1
*CAP
1 *367:B 0.000379418
2 *366:Y 0.000392405
3 *46:10 0.000771824
4 *367:B *402:S 0
5 *367:B *457:D 0
6 *367:B *496:A 0
7 *367:B *146:27 0
8 *46:10 *54:12 0
9 *46:10 *65:21 0
10 *46:10 *94:60 0
11 *367:A *367:B 0
12 *12:10 *46:10 8.0185e-05
*RES
1 *366:Y *46:10 43.8522 
2 *46:10 *367:B 43.4814 
*END

*D_NET *47 0.00302713
*CONN
*I *369:A2 I *D sg13g2_a21oi_1
*I *368:A2 I *D sg13g2_o21ai_1
*I *367:Y O *D sg13g2_xnor2_1
*CAP
1 *369:A2 0.000412319
2 *368:A2 7.8549e-05
3 *367:Y 0.000164049
4 *47:8 0.000654917
5 *368:A2 *402:S 4.7885e-05
6 *368:A2 *94:64 1.54282e-05
7 *368:A2 *106:24 0
8 *368:A2 *142:38 7.51285e-05
9 *369:A2 *369:A1 0.000235055
10 *369:A2 *48:8 0
11 *369:A2 *106:24 0
12 *369:A2 *136:8 0.000341707
13 *369:A2 *142:10 0.000820896
14 *369:A2 *142:38 0.000181192
15 *47:8 *94:64 0
16 *47:8 *106:12 0
*RES
1 *367:Y *47:8 41.6171 
2 *47:8 *368:A2 40.9167 
3 *47:8 *369:A2 46.1079 
*END

*D_NET *48 0.00169284
*CONN
*I *369:B1 I *D sg13g2_a21oi_1
*I *368:Y O *D sg13g2_o21ai_1
*CAP
1 *369:B1 3.61317e-05
2 *368:Y 0.000522321
3 *48:8 0.000558452
4 *48:8 *106:8 0
5 *48:8 *136:8 0.000341707
6 *48:8 *142:38 0.000234224
7 *48:8 *146:12 0
8 *369:A2 *48:8 0
*RES
1 *368:Y *48:8 46.0358 
2 *48:8 *369:B1 40.3193 
*END

*D_NET *49 0.00206228
*CONN
*I *370:B I *D sg13g2_xor2_1
*I *369:Y O *D sg13g2_a21oi_1
*CAP
1 *370:B 0
2 *369:Y 0.000726714
3 *49:10 0.000726714
4 *49:10 *393:B 0
5 *49:10 *455:RESET_B 0
6 *49:10 *455:CLK 0
7 *49:10 *65:64 0
8 *49:10 *83:8 0
9 *49:10 *106:24 0
10 *30:10 *49:10 0.000608855
*RES
1 *369:Y *49:10 47.7545 
2 *49:10 *370:B 40 
*END

*D_NET *50 0.00067593
*CONN
*I *492:A I *D sg13g2_dlygate4sd3_1
*I *371:Y O *D sg13g2_xnor2_1
*CAP
1 *492:A 0.000266083
2 *371:Y 0.000266083
3 *492:A *371:B 0
4 *492:A *373:A1 0
5 *492:A *126:10 0.000143764
*RES
1 *371:Y *492:A 42.987 
*END

*D_NET *51 0.00200397
*CONN
*I *498:A I *D sg13g2_dlygate4sd3_1
*I *373:Y O *D sg13g2_a21oi_1
*CAP
1 *498:A 3.67071e-05
2 *373:Y 0.00084549
3 *51:14 0.000882197
4 *498:A *491:A 0
5 *498:A *497:A 0
6 *51:14 *366:B 0
7 *51:14 *373:A1 0.000111334
8 *51:14 *373:A2 0
9 *51:14 *374:A 0
10 *51:14 *374:C 0
11 *51:14 *52:25 0
12 *51:14 *125:10 0
13 *51:14 *126:10 0.000128247
14 *51:14 *143:8 0
15 *51:14 *147:10 0
*RES
1 *373:Y *51:14 48.4151 
2 *51:14 *498:A 40.3193 
*END

*D_NET *52 0.00436025
*CONN
*I *377:B I *D sg13g2_and2_1
*I *376:B I *D sg13g2_nor2_1
*I *375:C I *D sg13g2_nor3_1
*I *374:X O *D sg13g2_and3_1
*CAP
1 *377:B 0.000148717
2 *376:B 4.03115e-05
3 *375:C 0.000916903
4 *374:X 0
5 *52:25 0.000439782
6 *52:4 0.00116766
7 *375:C *374:A 0
8 *375:C *374:C 0.000111876
9 *375:C *375:B 0.000613146
10 *375:C *381:A 0
11 *375:C *491:A 0.000274642
12 *375:C *94:32 0
13 *375:C *134:10 0.000176105
14 *375:C *167:14 0
15 *376:B *376:A 0
16 *376:B *497:A 0
17 *377:B *376:A 0.000235141
18 *377:B *419:RESET_B 0
19 *52:25 *131:8 0.000235971
20 *51:14 *52:25 0
*RES
1 *374:X *52:4 20 
2 *52:4 *375:C 30.0425 
3 *52:4 *52:25 23.3166 
4 *52:25 *376:B 40.3193 
5 *52:25 *377:B 41.9055 
*END

*D_NET *53 0.0020029
*CONN
*I *496:A I *D sg13g2_dlygate4sd3_1
*I *376:Y O *D sg13g2_nor2_1
*CAP
1 *496:A 0.000432601
2 *376:Y 0.000383659
3 *53:10 0.000816259
4 *496:A *419:RESET_B 0
5 *496:A *419:CLK 0.000339556
6 *496:A *457:D 0
7 *496:A *54:12 0
8 *496:A *61:52 0
9 *496:A *146:27 1.54008e-05
10 *53:10 *376:A 1.54282e-05
11 *53:10 *497:A 0
12 *53:10 *54:12 0
13 *53:10 *129:8 0
14 *367:B *496:A 0
*RES
1 *376:Y *53:10 44.0067 
2 *53:10 *496:A 44.5629 
*END

*D_NET *54 0.00395201
*CONN
*I *379:A2 I *D sg13g2_a21oi_1
*I *380:A2 I *D sg13g2_o21ai_1
*I *378:C I *D sg13g2_nor3_1
*I *377:X O *D sg13g2_and2_1
*CAP
1 *379:A2 0.0001664
2 *380:A2 0
3 *378:C 0.000378157
4 *377:X 0.000875935
5 *54:16 0.00041133
6 *54:12 0.00107551
7 *378:C *378:B 0.000307269