* NGSPICE file created from heichips25_usb_cdc.ext - technology: ihp-sg13g2

* Black-box entry subcircuit for sg13g2_o21ai_1 abstract view
.subckt sg13g2_o21ai_1 B1 VDD Y VSS A1 A2
.ends

* Black-box entry subcircuit for sg13g2_nand3_1 abstract view
.subckt sg13g2_nand3_1 B C A Y VDD VSS
.ends

* Black-box entry subcircuit for sg13g2_inv_1 abstract view
.subckt sg13g2_inv_1 VDD Y A VSS
.ends

* Black-box entry subcircuit for sg13g2_nor2_2 abstract view
.subckt sg13g2_nor2_2 A B Y VDD VSS
.ends

* Black-box entry subcircuit for sg13g2_fill_1 abstract view
.subckt sg13g2_fill_1 VDD VSS
.ends

* Black-box entry subcircuit for sg13g2_decap_4 abstract view
.subckt sg13g2_decap_4 VDD VSS
.ends

* Black-box entry subcircuit for sg13g2_decap_8 abstract view
.subckt sg13g2_decap_8 VDD VSS
.ends

* Black-box entry subcircuit for sg13g2_fill_2 abstract view
.subckt sg13g2_fill_2 VDD VSS
.ends

* Black-box entry subcircuit for sg13g2_dlygate4sd3_1 abstract view
.subckt sg13g2_dlygate4sd3_1 A VDD VSS X
.ends

* Black-box entry subcircuit for sg13g2_buf_8 abstract view
.subckt sg13g2_buf_8 A X VDD VSS
.ends

* Black-box entry subcircuit for sg13g2_buf_1 abstract view
.subckt sg13g2_buf_1 A X VDD VSS
.ends

* Black-box entry subcircuit for sg13g2_dfrbpq_2 abstract view
.subckt sg13g2_dfrbpq_2 RESET_B VSS VDD D Q CLK
.ends

* Black-box entry subcircuit for sg13g2_a21o_1 abstract view
.subckt sg13g2_a21o_1 A2 A1 B1 X VDD VSS
.ends

* Black-box entry subcircuit for sg13g2_dfrbpq_1 abstract view
.subckt sg13g2_dfrbpq_1 RESET_B VSS VDD D Q CLK
.ends

* Black-box entry subcircuit for sg13g2_nor2_1 abstract view
.subckt sg13g2_nor2_1 A B Y VDD VSS
.ends

* Black-box entry subcircuit for sg13g2_a21oi_1 abstract view
.subckt sg13g2_a21oi_1 VSS VDD A1 A2 Y B1
.ends

* Black-box entry subcircuit for sg13g2_nand2_1 abstract view
.subckt sg13g2_nand2_1 Y A B VDD VSS
.ends

* Black-box entry subcircuit for sg13g2_buf_2 abstract view
.subckt sg13g2_buf_2 A X VDD VSS
.ends

* Black-box entry subcircuit for sg13g2_inv_4 abstract view
.subckt sg13g2_inv_4 A Y VDD VSS
.ends

* Black-box entry subcircuit for sg13g2_nor2b_2 abstract view
.subckt sg13g2_nor2b_2 A B_N Y VDD VSS
.ends

* Black-box entry subcircuit for sg13g2_xor2_1 abstract view
.subckt sg13g2_xor2_1 B A X VDD VSS
.ends

* Black-box entry subcircuit for sg13g2_a221oi_1 abstract view
.subckt sg13g2_a221oi_1 VDD VSS B2 C1 B1 A1 Y A2
.ends

* Black-box entry subcircuit for sg13g2_nor3_1 abstract view
.subckt sg13g2_nor3_1 A B C Y VDD VSS
.ends

* Black-box entry subcircuit for sg13g2_nor4_1 abstract view
.subckt sg13g2_nor4_1 A B C D Y VDD VSS
.ends

* Black-box entry subcircuit for sg13g2_mux2_1 abstract view
.subckt sg13g2_mux2_1 A0 A1 S X VDD VSS
.ends

* Black-box entry subcircuit for sg13g2_nand2_2 abstract view
.subckt sg13g2_nand2_2 Y A B VDD VSS
.ends

* Black-box entry subcircuit for sg13g2_inv_2 abstract view
.subckt sg13g2_inv_2 Y A VDD VSS
.ends

* Black-box entry subcircuit for sg13g2_and2_1 abstract view
.subckt sg13g2_and2_1 A B X VDD VSS
.ends

* Black-box entry subcircuit for sg13g2_or4_1 abstract view
.subckt sg13g2_or4_1 A B C D X VDD VSS
.ends

* Black-box entry subcircuit for sg13g2_a22oi_1 abstract view
.subckt sg13g2_a22oi_1 Y B1 B2 A2 A1 VDD VSS
.ends

* Black-box entry subcircuit for sg13g2_nor2b_1 abstract view
.subckt sg13g2_nor2b_1 A B_N Y VDD VSS
.ends

* Black-box entry subcircuit for sg13g2_xnor2_1 abstract view
.subckt sg13g2_xnor2_1 Y A B VDD VSS
.ends

* Black-box entry subcircuit for sg13g2_nand2b_2 abstract view
.subckt sg13g2_nand2b_2 Y B VDD VSS A_N
.ends

* Black-box entry subcircuit for sg13g2_nand4_1 abstract view
.subckt sg13g2_nand4_1 B C A Y VDD VSS D
.ends

* Black-box entry subcircuit for sg13g2_nor4_2 abstract view
.subckt sg13g2_nor4_2 A B C Y VSS VDD D
.ends

* Black-box entry subcircuit for sg13g2_and3_1 abstract view
.subckt sg13g2_and3_1 X A B C VDD VSS
.ends

* Black-box entry subcircuit for sg13g2_nand2b_1 abstract view
.subckt sg13g2_nand2b_1 Y B A_N VDD VSS
.ends

* Black-box entry subcircuit for sg13g2_nor3_2 abstract view
.subckt sg13g2_nor3_2 A B C Y VDD VSS
.ends

* Black-box entry subcircuit for sg13g2_or2_1 abstract view
.subckt sg13g2_or2_1 VSS VDD X B A
.ends

* Black-box entry subcircuit for sg13g2_and4_1 abstract view
.subckt sg13g2_and4_1 A B C D X VDD VSS
.ends

* Black-box entry subcircuit for sg13g2_mux4_1 abstract view
.subckt sg13g2_mux4_1 S0 A0 A1 A2 A3 S1 X VDD VSS
.ends

* Black-box entry subcircuit for sg13g2_nand3b_1 abstract view
.subckt sg13g2_nand3b_1 B C Y VDD VSS A_N
.ends

* Black-box entry subcircuit for sg13g2_or3_1 abstract view
.subckt sg13g2_or3_1 A B C X VDD VSS
.ends

* Black-box entry subcircuit for sg13g2_a21oi_2 abstract view
.subckt sg13g2_a21oi_2 VSS VDD B1 Y A2 A1
.ends

* Black-box entry subcircuit for sg13g2_tiehi abstract view
.subckt sg13g2_tiehi VDD VSS L_HI
.ends

* Black-box entry subcircuit for sg13g2_and3_2 abstract view
.subckt sg13g2_and3_2 X A B C VDD VSS
.ends

* Black-box entry subcircuit for sg13g2_tielo abstract view
.subckt sg13g2_tielo VDD VSS L_LO
.ends

* Black-box entry subcircuit for spad_env_f_bit abstract view
.subckt spad_env_f_bit VGND VPWR clk env_bit env_valid spad_hit_async
.ends

.subckt heichips25_usb_cdc VGND VPWR clk ena rst_n ui_in[0] ui_in[1] ui_in[2] ui_in[3]
+ ui_in[4] ui_in[5] ui_in[6] ui_in[7] uio_in[0] uio_in[1] uio_in[2] uio_in[3] uio_in[4]
+ uio_in[5] uio_in[6] uio_in[7] uio_oe[0] uio_oe[1] uio_oe[2] uio_oe[3] uio_oe[4]
+ uio_oe[5] uio_oe[6] uio_oe[7] uio_out[0] uio_out[1] uio_out[2] uio_out[3] uio_out[4]
+ uio_out[5] uio_out[6] uio_out[7] uo_out[0] uo_out[1] uo_out[2] uo_out[3] uo_out[4]
+ uo_out[5] uo_out[6] uo_out[7] usb_dn_en_o usb_dn_rx_i usb_dn_tx_o usb_dp_en_o usb_dp_rx_i
+ usb_dp_tx_o usb_dp_up_o
X_3155_ _1202_ VPWR _0197_ VGND _1917_ net607 sg13g2_o21ai_1
X_3086_ net826 _1154_ net739 _1156_ VPWR VGND sg13g2_nand3_1
X_2106_ VPWR _1963_ net932 VGND sg13g2_inv_1
X_3988_ net754 _0925_ _1823_ VPWR VGND sg13g2_nor2_2
XFILLER_23_678 VPWR VGND sg13g2_fill_1
XFILLER_10_328 VPWR VGND sg13g2_decap_4
X_2939_ _1015_ net621 _1077_ VPWR VGND sg13g2_nor2_2
XFILLER_2_516 VPWR VGND sg13g2_decap_8
XFILLER_7_7 VPWR VGND sg13g2_fill_2
Xhold340 u_usb_cdc.u_sie.u_phy_tx.data_q\[3\] VPWR VGND net383 sg13g2_dlygate4sd3_1
Xhold362 _0424_ VPWR VGND net405 sg13g2_dlygate4sd3_1
Xhold351 _0919_ VPWR VGND net394 sg13g2_dlygate4sd3_1
Xhold384 _0221_ VPWR VGND net427 sg13g2_dlygate4sd3_1
Xhold373 u_usb_cdc.u_bulk_endps\[0\].u_bulk_endp.u_out_fifo.out_fifo_q\[50\] VPWR
+ VGND net416 sg13g2_dlygate4sd3_1
Xhold395 _0381_ VPWR VGND net438 sg13g2_dlygate4sd3_1
Xfanout820 net1041 net820 VPWR VGND sg13g2_buf_8
Xfanout842 net843 net842 VPWR VGND sg13g2_buf_8
Xfanout831 net832 net831 VPWR VGND sg13g2_buf_1
XFILLER_46_704 VPWR VGND sg13g2_decap_8
XFILLER_27_951 VPWR VGND sg13g2_fill_1
XFILLER_42_910 VPWR VGND sg13g2_decap_8
XFILLER_42_987 VPWR VGND sg13g2_decap_8
Xclkbuf_3_6__f_clk_regs clknet_0_clk_regs clknet_3_6__leaf_clk_regs VPWR VGND sg13g2_buf_8
XFILLER_49_520 VPWR VGND sg13g2_decap_8
XFILLER_49_597 VPWR VGND sg13g2_decap_8
X_3911_ net615 VPWR _1776_ VGND net340 _1772_ sg13g2_o21ai_1
X_3842_ _1726_ VPWR _1727_ VGND _0578_ _0956_ sg13g2_o21ai_1
XFILLER_33_998 VPWR VGND sg13g2_decap_8
X_3773_ _0439_ VPWR _1673_ VGND net506 _1523_ sg13g2_o21ai_1
X_2724_ net394 VPWR _0033_ VGND _1977_ _0917_ sg13g2_o21ai_1
X_2655_ _0843_ VPWR _0021_ VGND _0845_ _0865_ sg13g2_o21ai_1
X_4325_ net652 VGND VPWR net952 u_usb_cdc.u_bulk_endps\[0\].u_bulk_endp.u_out_fifo.out_last_q\[3\]
+ clknet_leaf_4_clk_regs sg13g2_dfrbpq_2
X_2586_ _0807_ net974 _0808_ _0009_ VPWR VGND sg13g2_a21o_1
X_4256_ net654 VGND VPWR net326 u_usb_cdc.u_bulk_endps\[0\].u_bulk_endp.u_out_fifo.out_fifo_q\[18\]
+ clknet_leaf_53_clk_regs sg13g2_dfrbpq_1
X_3207_ net396 net631 _1230_ VPWR VGND sg13g2_nor2_1
X_4187_ net667 VGND VPWR net219 u_usb_cdc.u_bulk_endps\[0\].u_bulk_endp.u_in_fifo.in_fifo_q\[33\]
+ clknet_leaf_12_clk_regs sg13g2_dfrbpq_1
X_3138_ VGND VPWR net633 _1192_ _0190_ net334 sg13g2_a21oi_1
XFILLER_27_214 VPWR VGND sg13g2_fill_2
X_3069_ _1145_ net288 net634 VPWR VGND sg13g2_nand2_1
XFILLER_24_998 VPWR VGND sg13g2_decap_8
XFILLER_6_129 VPWR VGND sg13g2_fill_2
XFILLER_3_847 VPWR VGND sg13g2_decap_4
Xhold170 _0206_ VPWR VGND net213 sg13g2_dlygate4sd3_1
XFILLER_2_379 VPWR VGND sg13g2_decap_8
Xhold192 _0213_ VPWR VGND net235 sg13g2_dlygate4sd3_1
Xhold181 u_usb_cdc.u_bulk_endps\[0\].u_bulk_endp.u_out_fifo.out_fifo_q\[56\] VPWR
+ VGND net224 sg13g2_dlygate4sd3_1
Xfanout650 net651 net650 VPWR VGND sg13g2_buf_2
Xfanout683 net685 net683 VPWR VGND sg13g2_buf_8
Xfanout672 net674 net672 VPWR VGND sg13g2_buf_8
Xfanout661 net665 net661 VPWR VGND sg13g2_buf_8
Xfanout694 net706 net694 VPWR VGND sg13g2_buf_8
XFILLER_15_965 VPWR VGND sg13g2_fill_2
XFILLER_30_968 VPWR VGND sg13g2_decap_8
X_2440_ _0670_ _1925_ net787 VPWR VGND sg13g2_nand2_1
X_2371_ _0601_ _0602_ VPWR VGND sg13g2_inv_4
XFILLER_38_4 VPWR VGND sg13g2_decap_8
X_4110_ net693 VGND VPWR net542 _0049_ clknet_leaf_33_clk_regs sg13g2_dfrbpq_1
X_4041_ _1865_ VPWR _0415_ VGND _1869_ _1870_ sg13g2_o21ai_1
XFILLER_49_394 VPWR VGND sg13g2_decap_8
X_3825_ _0990_ _1704_ _1712_ VPWR VGND sg13g2_nor2b_2
X_3756_ _1627_ VPWR _1657_ VGND _1628_ _1656_ sg13g2_o21ai_1
X_2707_ net976 _2038_ net1007 _0906_ VPWR VGND sg13g2_nand3_1
X_3687_ VGND VPWR net799 _1589_ _1590_ net796 sg13g2_a21oi_1
X_2638_ u_usb_cdc.u_sie.addr_q\[6\] u_usb_cdc.addr\[6\] _0849_ VPWR VGND sg13g2_xor2_1
X_2569_ VPWR VGND net588 _0792_ _0793_ _0663_ _0794_ net622 sg13g2_a221oi_1
X_4308_ net648 VGND VPWR net167 u_usb_cdc.u_bulk_endps\[0\].u_bulk_endp.u_out_fifo.out_fifo_q\[70\]
+ clknet_leaf_0_clk_regs sg13g2_dfrbpq_1
XFILLER_0_839 VPWR VGND sg13g2_fill_1
X_4239_ net675 VGND VPWR _0168_ u_usb_cdc.u_bulk_endps\[0\].u_bulk_endp.u_out_fifo.out_fifo_q\[1\]
+ clknet_leaf_6_clk_regs sg13g2_dfrbpq_1
XFILLER_47_309 VPWR VGND sg13g2_decap_8
XFILLER_28_523 VPWR VGND sg13g2_fill_1
XFILLER_28_512 VPWR VGND sg13g2_fill_2
XFILLER_16_707 VPWR VGND sg13g2_fill_2
XFILLER_11_478 VPWR VGND sg13g2_decap_4
XFILLER_11_467 VPWR VGND sg13g2_fill_2
XFILLER_47_810 VPWR VGND sg13g2_decap_8
XFILLER_0_35 VPWR VGND sg13g2_decap_8
XFILLER_47_887 VPWR VGND sg13g2_decap_8
XFILLER_15_751 VPWR VGND sg13g2_fill_2
XFILLER_15_784 VPWR VGND sg13g2_fill_2
XFILLER_42_581 VPWR VGND sg13g2_fill_1
X_3610_ _0545_ VPWR _1516_ VGND _1514_ _1515_ sg13g2_o21ai_1
XFILLER_31_1023 VPWR VGND sg13g2_decap_4
X_3541_ _1469_ VPWR _1472_ VGND _1940_ net179 sg13g2_o21ai_1
XFILLER_7_972 VPWR VGND sg13g2_decap_8
X_3472_ VGND VPWR net576 _1426_ _0290_ _1425_ sg13g2_a21oi_1
XFILLER_9_1002 VPWR VGND sg13g2_decap_8
X_2423_ _0540_ net785 net781 _0653_ VPWR VGND sg13g2_a21o_1
X_2354_ u_usb_cdc.u_sie.in_byte_q\[3\] _2017_ _0584_ _0585_ VPWR VGND sg13g2_nor3_1
X_2285_ _0517_ u_usb_cdc.ctrl_stall net640 VPWR VGND sg13g2_nand2_1
X_4024_ _2027_ u_usb_cdc.u_sie.u_phy_tx.tx_state_q\[3\] _1830_ _1856_ VPWR VGND sg13g2_a21o_1
X_3808_ _1699_ VPWR _0353_ VGND _1917_ net600 sg13g2_o21ai_1
X_3739_ VGND VPWR net804 u_usb_cdc.u_bulk_endps\[0\].u_bulk_endp.u_in_fifo.in_fifo_q\[13\]
+ _1640_ _1639_ sg13g2_a21oi_1
XFILLER_0_636 VPWR VGND sg13g2_decap_8
XFILLER_44_879 VPWR VGND sg13g2_decap_8
XFILLER_12_732 VPWR VGND sg13g2_fill_1
XFILLER_12_787 VPWR VGND sg13g2_fill_1
XFILLER_4_953 VPWR VGND sg13g2_decap_8
XFILLER_3_463 VPWR VGND sg13g2_decap_4
X_2070_ VPWR _1927_ net959 VGND sg13g2_inv_1
XFILLER_47_684 VPWR VGND sg13g2_decap_8
XFILLER_46_172 VPWR VGND sg13g2_decap_4
X_2972_ _1095_ u_usb_cdc.u_bulk_endps\[0\].u_bulk_endp.u_in_fifo.u_sync_data.app_in_data_q\[7\]
+ net636 VPWR VGND sg13g2_nand2_1
XFILLER_30_551 VPWR VGND sg13g2_decap_8
Xhold703 u_usb_cdc.u_sie.u_phy_rx.nrzi_q\[2\] VPWR VGND net1022 sg13g2_dlygate4sd3_1
X_3524_ VGND VPWR _1913_ net585 _0308_ _1460_ sg13g2_a21oi_1
Xhold714 u_usb_cdc.sie_out_data\[3\] VPWR VGND net1033 sg13g2_dlygate4sd3_1
Xhold725 u_usb_cdc.u_bulk_endps\[0\].u_bulk_endp.u_in_fifo.in_last_q\[1\] VPWR VGND
+ net1044 sg13g2_dlygate4sd3_1
X_3455_ VGND VPWR net722 _1412_ _0285_ _1414_ sg13g2_a21oi_1
X_2406_ _0542_ _0634_ net744 _0636_ VPWR VGND sg13g2_nand3_1
X_3386_ net639 u_usb_cdc.sie_in_req _1371_ _1372_ VPWR VGND sg13g2_a21o_1
X_2337_ _0569_ net847 _0517_ VPWR VGND sg13g2_nand2_1
X_2268_ _0491_ _0483_ _0500_ VPWR VGND sg13g2_xor2_1
X_4007_ _2028_ _1009_ _1836_ _1840_ _1841_ VPWR VGND sg13g2_nor4_1
XFILLER_37_150 VPWR VGND sg13g2_fill_1
X_2199_ _0431_ VPWR _0432_ VGND net572 _2043_ sg13g2_o21ai_1
XFILLER_21_551 VPWR VGND sg13g2_fill_1
XFILLER_20_32 VPWR VGND sg13g2_fill_2
XFILLER_1_912 VPWR VGND sg13g2_decap_8
XFILLER_0_400 VPWR VGND sg13g2_decap_8
XFILLER_49_905 VPWR VGND sg13g2_decap_8
XFILLER_0_477 VPWR VGND sg13g2_decap_8
XFILLER_1_989 VPWR VGND sg13g2_decap_8
Xhold41 u_usb_cdc.u_sie.in_zlp_q\[1\] VPWR VGND net84 sg13g2_dlygate4sd3_1
Xhold30 _0104_ VPWR VGND net73 sg13g2_dlygate4sd3_1
XFILLER_21_1011 VPWR VGND sg13g2_decap_8
Xhold52 _0103_ VPWR VGND net95 sg13g2_dlygate4sd3_1
Xhold74 u_usb_cdc.u_bulk_endps\[0\].u_bulk_endp.u_in_fifo.in_fifo_q\[45\] VPWR VGND
+ net117 sg13g2_dlygate4sd3_1
Xhold63 _0098_ VPWR VGND net106 sg13g2_dlygate4sd3_1
Xhold85 _0210_ VPWR VGND net128 sg13g2_dlygate4sd3_1
Xhold96 u_usb_cdc.u_bulk_endps\[0\].u_bulk_endp.u_in_fifo.in_fifo_q\[69\] VPWR VGND
+ net139 sg13g2_dlygate4sd3_1
XFILLER_45_51 VPWR VGND sg13g2_fill_2
XFILLER_43_153 VPWR VGND sg13g2_fill_1
X_3240_ _1247_ VPWR _0237_ VGND _1155_ _1190_ sg13g2_o21ai_1
X_3171_ _1211_ net246 net609 VPWR VGND sg13g2_nand2_1
X_2122_ VPWR _1979_ net924 VGND sg13g2_inv_1
X_2053_ VPWR _1910_ net764 VGND sg13g2_inv_1
XFILLER_47_481 VPWR VGND sg13g2_decap_8
XFILLER_23_827 VPWR VGND sg13g2_decap_8
X_2955_ _1082_ VPWR _0116_ VGND net620 _1083_ sg13g2_o21ai_1
X_2886_ _1040_ u_usb_cdc.u_bulk_endps\[0\].u_bulk_endp.u_in_fifo.u_sync_data.app_in_data_q\[0\]
+ net645 VPWR VGND sg13g2_nand2_1
Xhold511 _1809_ VPWR VGND net554 sg13g2_dlygate4sd3_1
Xhold500 u_usb_cdc.out_valid_o[0] VPWR VGND net543 sg13g2_dlygate4sd3_1
Xhold522 _0294_ VPWR VGND net565 sg13g2_dlygate4sd3_1
Xhold544 _0156_ VPWR VGND net863 sg13g2_dlygate4sd3_1
Xhold533 _0164_ VPWR VGND net852 sg13g2_dlygate4sd3_1
X_3507_ _1452_ net778 net775 VPWR VGND sg13g2_nand2_1
Xhold555 u_usb_cdc.u_ctrl_endp.req_q\[4\] VPWR VGND net874 sg13g2_dlygate4sd3_1
Xhold588 _0329_ VPWR VGND net907 sg13g2_dlygate4sd3_1
X_4487_ net733 VGND VPWR net47 u_usb_cdc.u_sie.u_phy_rx.dp_q\[0\] clknet_leaf_30_clk_regs
+ sg13g2_dfrbpq_1
Xhold577 u_usb_cdc.u_sie.u_phy_rx.cnt_q\[12\] VPWR VGND net896 sg13g2_dlygate4sd3_1
Xhold566 net31 VPWR VGND net885 sg13g2_dlygate4sd3_1
X_3438_ net559 net582 _1405_ VPWR VGND sg13g2_nor2_1
Xclkbuf_leaf_9_clk_regs clknet_3_2__leaf_clk_regs clknet_leaf_9_clk_regs VPWR VGND
+ sg13g2_buf_8
Xhold599 _1803_ VPWR VGND net918 sg13g2_dlygate4sd3_1
X_3369_ net935 _1269_ _1360_ _0252_ VPWR VGND sg13g2_mux2_1
XFILLER_39_960 VPWR VGND sg13g2_decap_8
XFILLER_26_621 VPWR VGND sg13g2_decap_4
XFILLER_26_610 VPWR VGND sg13g2_fill_2
Xclkbuf_3_5__f_clk_regs clknet_0_clk_regs clknet_3_5__leaf_clk_regs VPWR VGND sg13g2_buf_8
XFILLER_40_156 VPWR VGND sg13g2_fill_1
XFILLER_5_514 VPWR VGND sg13g2_fill_1
XFILLER_5_525 VPWR VGND sg13g2_fill_1
Xoutput31 net31 usb_dp_up_o VPWR VGND sg13g2_buf_1
XFILLER_1_720 VPWR VGND sg13g2_decap_8
Xoutput20 net20 uo_out[1] VPWR VGND sg13g2_buf_1
XFILLER_49_702 VPWR VGND sg13g2_decap_8
XFILLER_0_274 VPWR VGND sg13g2_decap_8
XFILLER_1_797 VPWR VGND sg13g2_decap_8
XFILLER_49_779 VPWR VGND sg13g2_decap_8
XFILLER_45_974 VPWR VGND sg13g2_decap_8
XFILLER_31_101 VPWR VGND sg13g2_fill_2
XFILLER_20_819 VPWR VGND sg13g2_decap_8
X_2740_ _0930_ _0694_ _0744_ VPWR VGND sg13g2_nand2_1
XFILLER_12_392 VPWR VGND sg13g2_decap_4
X_2671_ _0876_ net841 net596 VPWR VGND sg13g2_nand2_1
X_4410_ net696 VGND VPWR _0338_ u_usb_cdc.u_sie.crc16_q\[15\] clknet_leaf_41_clk_regs
+ sg13g2_dfrbpq_1
X_4341_ net683 VGND VPWR _0269_ u_usb_cdc.addr\[1\] clknet_leaf_48_clk_regs sg13g2_dfrbpq_2
X_4272_ net654 VGND VPWR net181 u_usb_cdc.u_bulk_endps\[0\].u_bulk_endp.u_out_fifo.out_fifo_q\[34\]
+ clknet_leaf_52_clk_regs sg13g2_dfrbpq_1
XFILLER_28_1028 VPWR VGND sg13g2_fill_1
X_3223_ net758 net603 _1239_ VPWR VGND sg13g2_nor2_1
X_3154_ _1202_ net160 net607 VPWR VGND sg13g2_nand2_1
XFILLER_11_0 VPWR VGND sg13g2_fill_1
X_3085_ _1155_ net739 _1154_ VPWR VGND sg13g2_nand2_2
X_2105_ _1962_ net530 VPWR VGND sg13g2_inv_2
XFILLER_35_484 VPWR VGND sg13g2_fill_1
X_3987_ _1821_ VPWR _1822_ VGND _1921_ net709 sg13g2_o21ai_1
XFILLER_31_690 VPWR VGND sg13g2_fill_1
X_2938_ _1075_ VPWR _0106_ VGND net621 _1076_ sg13g2_o21ai_1
XFILLER_11_1010 VPWR VGND sg13g2_decap_8
X_2869_ net7 net1002 net646 _0080_ VPWR VGND sg13g2_mux2_1
Xhold330 _0229_ VPWR VGND net373 sg13g2_dlygate4sd3_1
Xhold341 _0413_ VPWR VGND net384 sg13g2_dlygate4sd3_1
Xhold352 _0033_ VPWR VGND net395 sg13g2_dlygate4sd3_1
Xhold385 u_usb_cdc.u_ctrl_endp.addr_dd\[2\] VPWR VGND net428 sg13g2_dlygate4sd3_1
Xhold374 _0217_ VPWR VGND net417 sg13g2_dlygate4sd3_1
Xhold363 u_usb_cdc.u_sie.in_toggle_q\[0\] VPWR VGND net406 sg13g2_dlygate4sd3_1
Xhold396 u_usb_cdc.u_sie.u_phy_tx.data_q\[2\] VPWR VGND net439 sg13g2_dlygate4sd3_1
Xfanout821 net825 net821 VPWR VGND sg13g2_buf_8
Xfanout832 net1046 net832 VPWR VGND sg13g2_buf_8
Xfanout843 net1026 net843 VPWR VGND sg13g2_buf_8
Xfanout810 net811 net810 VPWR VGND sg13g2_buf_8
XFILLER_26_53 VPWR VGND sg13g2_decap_8
XFILLER_27_996 VPWR VGND sg13g2_decap_8
XFILLER_42_966 VPWR VGND sg13g2_decap_8
XFILLER_26_484 VPWR VGND sg13g2_decap_8
XFILLER_13_178 VPWR VGND sg13g2_fill_2
XFILLER_6_801 VPWR VGND sg13g2_fill_1
XFILLER_10_841 VPWR VGND sg13g2_decap_8
XFILLER_10_874 VPWR VGND sg13g2_fill_1
XFILLER_5_344 VPWR VGND sg13g2_fill_2
XFILLER_1_594 VPWR VGND sg13g2_fill_1
XFILLER_1_583 VPWR VGND sg13g2_decap_8
XFILLER_1_572 VPWR VGND sg13g2_fill_2
XFILLER_49_576 VPWR VGND sg13g2_decap_8
XFILLER_17_484 VPWR VGND sg13g2_decap_8
X_3910_ net340 _1772_ _1775_ VPWR VGND sg13g2_and2_1
X_3841_ _1934_ _0450_ _0452_ _0481_ _1726_ VPWR VGND sg13g2_or4_1
XFILLER_20_605 VPWR VGND sg13g2_decap_4
XFILLER_32_498 VPWR VGND sg13g2_decap_4
XFILLER_20_649 VPWR VGND sg13g2_fill_1
X_3772_ VPWR VGND _1499_ net627 _1671_ net638 _1672_ _1669_ sg13g2_a221oi_1
X_2723_ _0919_ net393 _0918_ VPWR VGND sg13g2_nand2_1
X_2654_ _0865_ net766 _0864_ VPWR VGND sg13g2_nand2_1
X_2585_ _1942_ _0632_ _0636_ _0745_ _0808_ VPWR VGND sg13g2_nor4_1
X_4324_ net653 VGND VPWR net941 u_usb_cdc.u_bulk_endps\[0\].u_bulk_endp.u_out_fifo.out_last_q\[2\]
+ clknet_leaf_9_clk_regs sg13g2_dfrbpq_2
X_4255_ net655 VGND VPWR net442 u_usb_cdc.u_bulk_endps\[0\].u_bulk_endp.u_out_fifo.out_fifo_q\[17\]
+ clknet_leaf_2_clk_regs sg13g2_dfrbpq_1
X_3206_ VGND VPWR _1917_ net631 _0221_ _1229_ sg13g2_a21oi_1
X_4186_ net680 VGND VPWR net159 u_usb_cdc.u_bulk_endps\[0\].u_bulk_endp.u_in_fifo.in_fifo_q\[32\]
+ clknet_leaf_7_clk_regs sg13g2_dfrbpq_1
X_3137_ _1192_ net757 _1141_ VPWR VGND sg13g2_nand2_2
XFILLER_28_738 VPWR VGND sg13g2_fill_1
X_3068_ _1144_ VPWR _0168_ VGND net722 net635 sg13g2_o21ai_1
XFILLER_24_977 VPWR VGND sg13g2_decap_8
Xhold171 u_usb_cdc.u_bulk_endps\[0\].u_bulk_endp.u_out_fifo.out_fifo_q\[40\] VPWR
+ VGND net214 sg13g2_dlygate4sd3_1
Xhold160 u_usb_cdc.u_bulk_endps\[0\].u_bulk_endp.u_out_fifo.out_fifo_q\[8\] VPWR VGND
+ net203 sg13g2_dlygate4sd3_1
XFILLER_2_358 VPWR VGND sg13g2_decap_8
Xhold182 _0223_ VPWR VGND net225 sg13g2_dlygate4sd3_1
Xhold193 u_usb_cdc.u_sie.rx_data\[5\] VPWR VGND net236 sg13g2_dlygate4sd3_1
Xfanout651 net653 net651 VPWR VGND sg13g2_buf_8
Xfanout640 net641 net640 VPWR VGND sg13g2_buf_8
Xfanout684 net685 net684 VPWR VGND sg13g2_buf_8
Xfanout673 net674 net673 VPWR VGND sg13g2_buf_8
Xfanout662 net664 net662 VPWR VGND sg13g2_buf_8
Xfanout695 net704 net695 VPWR VGND sg13g2_buf_8
XFILLER_18_237 VPWR VGND sg13g2_fill_1
XFILLER_15_933 VPWR VGND sg13g2_fill_1
XFILLER_14_498 VPWR VGND sg13g2_decap_8
XFILLER_30_947 VPWR VGND sg13g2_decap_8
X_2370_ net752 _0600_ _0601_ VPWR VGND sg13g2_nor2_2
X_4040_ _1842_ VPWR _1870_ VGND u_usb_cdc.u_sie.u_phy_tx.data_q\[6\] _1835_ sg13g2_o21ai_1
Xclkbuf_leaf_23_clk_regs clknet_3_6__leaf_clk_regs clknet_leaf_23_clk_regs VPWR VGND
+ sg13g2_buf_8
XFILLER_21_936 VPWR VGND sg13g2_fill_1
X_3824_ _0357_ _1709_ _1711_ _1703_ _1934_ VPWR VGND sg13g2_a22oi_1
X_3755_ net776 _1514_ _1656_ VPWR VGND sg13g2_nor2b_1
X_2706_ _0883_ _0904_ _2042_ _0905_ VPWR VGND sg13g2_nand3_1
X_3686_ u_usb_cdc.u_bulk_endps\[0\].u_bulk_endp.u_in_fifo.in_fifo_q\[19\] u_usb_cdc.u_bulk_endps\[0\].u_bulk_endp.u_in_fifo.in_fifo_q\[27\]
+ net803 _1589_ VPWR VGND sg13g2_mux2_1
X_2637_ _0848_ u_usb_cdc.addr\[4\] u_usb_cdc.u_sie.addr_q\[4\] VPWR VGND sg13g2_xnor2_1
XFILLER_0_818 VPWR VGND sg13g2_decap_8
X_2568_ _0793_ _0643_ _0666_ VPWR VGND sg13g2_nand2_1
X_2499_ _0726_ net794 _0706_ VPWR VGND sg13g2_nand2_1
X_4307_ net650 VGND VPWR net227 u_usb_cdc.u_bulk_endps\[0\].u_bulk_endp.u_out_fifo.out_fifo_q\[69\]
+ clknet_leaf_1_clk_regs sg13g2_dfrbpq_1
X_4238_ net675 VGND VPWR net217 u_usb_cdc.u_bulk_endps\[0\].u_bulk_endp.u_out_fifo.out_fifo_q\[0\]
+ clknet_leaf_6_clk_regs sg13g2_dfrbpq_1
X_4169_ net678 VGND VPWR net106 u_usb_cdc.u_bulk_endps\[0\].u_bulk_endp.u_in_fifo.in_fifo_q\[15\]
+ clknet_leaf_17_clk_regs sg13g2_dfrbpq_1
XFILLER_28_568 VPWR VGND sg13g2_fill_2
XFILLER_23_284 VPWR VGND sg13g2_fill_1
XFILLER_47_866 VPWR VGND sg13g2_decap_8
XFILLER_0_14 VPWR VGND sg13g2_decap_8
XFILLER_19_546 VPWR VGND sg13g2_fill_1
XFILLER_19_557 VPWR VGND sg13g2_fill_2
XFILLER_34_505 VPWR VGND sg13g2_decap_8
XFILLER_46_365 VPWR VGND sg13g2_fill_2
XFILLER_46_376 VPWR VGND sg13g2_fill_1
XFILLER_14_284 VPWR VGND sg13g2_fill_1
XFILLER_30_755 VPWR VGND sg13g2_fill_2
XFILLER_31_1002 VPWR VGND sg13g2_decap_8
X_3540_ _1471_ net413 _1466_ VPWR VGND sg13g2_nand2_1
XFILLER_7_951 VPWR VGND sg13g2_decap_8
X_3471_ u_usb_cdc.sie_out_data\[2\] _1421_ _1426_ VPWR VGND sg13g2_nor2_1
X_2422_ _0652_ net792 net785 VPWR VGND sg13g2_nand2_1
X_2353_ net327 net321 net376 _0584_ VPWR VGND sg13g2_nand3_1
X_2284_ _0516_ net710 VPWR VGND net768 sg13g2_nand2b_2
X_4023_ _1852_ _1853_ _0926_ _1855_ VPWR VGND _1854_ sg13g2_nand4_1
XFILLER_25_549 VPWR VGND sg13g2_decap_8
XFILLER_33_582 VPWR VGND sg13g2_fill_2
XFILLER_21_755 VPWR VGND sg13g2_fill_2
X_3807_ net592 _1692_ net992 _1699_ VPWR VGND sg13g2_nand3_1
X_3738_ net804 u_usb_cdc.u_bulk_endps\[0\].u_bulk_endp.u_in_fifo.in_fifo_q\[5\] _1639_
+ VPWR VGND sg13g2_nor2b_1
X_3669_ VPWR VGND _1569_ _1572_ _1567_ _1500_ _1573_ _1564_ sg13g2_a221oi_1
XFILLER_47_1020 VPWR VGND sg13g2_decap_8
XFILLER_48_619 VPWR VGND sg13g2_decap_8
XFILLER_47_129 VPWR VGND sg13g2_fill_2
XFILLER_29_877 VPWR VGND sg13g2_decap_4
XFILLER_34_42 VPWR VGND sg13g2_fill_2
XFILLER_7_236 VPWR VGND sg13g2_fill_2
XFILLER_3_420 VPWR VGND sg13g2_fill_2
XFILLER_38_118 VPWR VGND sg13g2_fill_1
XFILLER_47_663 VPWR VGND sg13g2_decap_8
X_2971_ _1094_ net177 _1079_ VPWR VGND sg13g2_nand2_1
XFILLER_43_891 VPWR VGND sg13g2_decap_8
XFILLER_15_582 VPWR VGND sg13g2_decap_4
XFILLER_30_596 VPWR VGND sg13g2_fill_1
Xhold704 _0064_ VPWR VGND net1023 sg13g2_dlygate4sd3_1
Xhold726 u_usb_cdc.sie_out_data\[2\] VPWR VGND net1045 sg13g2_dlygate4sd3_1
X_3523_ net385 net585 _1460_ VPWR VGND sg13g2_nor2_1
Xhold715 u_usb_cdc.sie_in_req VPWR VGND net1034 sg13g2_dlygate4sd3_1
X_3454_ net953 _1412_ _1414_ VPWR VGND sg13g2_nor2_1
X_2405_ _0635_ _0633_ VPWR VGND net779 sg13g2_nand2b_2
X_3385_ net809 net801 net797 _1371_ VGND VPWR _1924_ sg13g2_nor4_2
X_2336_ VPWR VGND net84 _0565_ net638 net164 _0568_ net640 sg13g2_a221oi_1
X_2267_ _0499_ u_usb_cdc.u_sie.crc16_q\[1\] _0484_ VPWR VGND sg13g2_xnor2_1
X_4006_ VGND VPWR _0926_ _1839_ _1840_ _1834_ sg13g2_a21oi_1
X_2198_ _0431_ net990 net707 VPWR VGND sg13g2_nand2_1
Xclkbuf_3_4__f_clk_regs clknet_0_clk_regs clknet_3_4__leaf_clk_regs VPWR VGND sg13g2_buf_8
XFILLER_1_968 VPWR VGND sg13g2_decap_8
XFILLER_0_456 VPWR VGND sg13g2_decap_8
Xhold31 u_usb_cdc.u_bulk_endps\[0\].u_bulk_endp.u_in_fifo.in_fifo_q\[42\] VPWR VGND
+ net74 sg13g2_dlygate4sd3_1
Xhold20 _0123_ VPWR VGND net63 sg13g2_dlygate4sd3_1
Xhold64 u_usb_cdc.u_sie.out_eop_q VPWR VGND net107 sg13g2_dlygate4sd3_1
Xhold42 _0425_ VPWR VGND net85 sg13g2_dlygate4sd3_1
Xhold53 u_usb_cdc.u_bulk_endps\[0\].u_bulk_endp.u_in_fifo.in_fifo_q\[47\] VPWR VGND
+ net96 sg13g2_dlygate4sd3_1
Xhold86 u_usb_cdc.u_bulk_endps\[0\].u_bulk_endp.u_out_fifo.out_fifo_q\[65\] VPWR VGND
+ net129 sg13g2_dlygate4sd3_1
Xhold75 _0128_ VPWR VGND net118 sg13g2_dlygate4sd3_1
Xhold97 _0152_ VPWR VGND net140 sg13g2_dlygate4sd3_1
XFILLER_12_563 VPWR VGND sg13g2_decap_4
XFILLER_12_585 VPWR VGND sg13g2_fill_2
XFILLER_3_294 VPWR VGND sg13g2_fill_1
X_3170_ _1210_ VPWR _0204_ VGND _1188_ net608 sg13g2_o21ai_1
XFILLER_6_1028 VPWR VGND sg13g2_fill_1
XFILLER_13_4 VPWR VGND sg13g2_fill_1
X_2121_ _1978_ net929 VPWR VGND sg13g2_inv_2
X_2052_ VPWR _1909_ net299 VGND sg13g2_inv_1
XFILLER_48_983 VPWR VGND sg13g2_decap_8
X_2954_ _1083_ u_usb_cdc.u_bulk_endps\[0\].u_bulk_endp.u_in_fifo.u_sync_data.app_in_data_q\[1\]
+ net636 VPWR VGND sg13g2_nand2_1
X_2885_ net833 net834 _1039_ VPWR VGND sg13g2_nor2b_2
Xhold501 _0042_ VPWR VGND net544 sg13g2_dlygate4sd3_1
Xhold512 _0396_ VPWR VGND net555 sg13g2_dlygate4sd3_1
Xhold523 u_usb_cdc.u_ctrl_endp.addr_dd\[4\] VPWR VGND net566 sg13g2_dlygate4sd3_1
Xhold545 u_usb_cdc.u_ctrl_endp.max_length_q\[2\] VPWR VGND net864 sg13g2_dlygate4sd3_1
X_3506_ _1451_ net774 _1437_ VPWR VGND sg13g2_nand2_1
Xhold534 u_usb_cdc.u_sie.u_phy_rx.cnt_q\[16\] VPWR VGND net853 sg13g2_dlygate4sd3_1
Xhold556 _0005_ VPWR VGND net875 sg13g2_dlygate4sd3_1
Xhold578 u_usb_cdc.addr\[4\] VPWR VGND net897 sg13g2_dlygate4sd3_1
Xhold567 _1820_ VPWR VGND net886 sg13g2_dlygate4sd3_1
X_4486_ net735 VGND VPWR net887 net31 clknet_leaf_26_clk_regs sg13g2_dfrbpq_2
XFILLER_44_1012 VPWR VGND sg13g2_decap_8
X_3437_ VGND VPWR _1913_ net581 _0277_ _1404_ sg13g2_a21oi_1
Xhold589 u_usb_cdc.u_ctrl_endp.max_length_q\[5\] VPWR VGND net908 sg13g2_dlygate4sd3_1
X_3368_ _1361_ VPWR _0251_ VGND _1984_ _1360_ sg13g2_o21ai_1
X_2319_ u_usb_cdc.u_ctrl_endp.state_q\[1\] u_usb_cdc.ctrl_stall u_usb_cdc.u_ctrl_endp.state_q\[5\]
+ _0550_ _0551_ VPWR VGND sg13g2_or4_1
X_3299_ _1299_ VPWR _1300_ VGND net822 u_usb_cdc.u_bulk_endps\[0\].u_bulk_endp.u_out_fifo.out_fifo_q\[17\]
+ sg13g2_o21ai_1
XFILLER_14_806 VPWR VGND sg13g2_fill_2
XFILLER_26_677 VPWR VGND sg13g2_fill_1
XFILLER_15_55 VPWR VGND sg13g2_fill_2
XFILLER_22_894 VPWR VGND sg13g2_fill_2
XFILLER_40_179 VPWR VGND sg13g2_fill_1
Xoutput21 net21 uo_out[2] VPWR VGND sg13g2_buf_1
XFILLER_1_776 VPWR VGND sg13g2_decap_8
XFILLER_0_253 VPWR VGND sg13g2_decap_8
XFILLER_0_242 VPWR VGND sg13g2_fill_1
XFILLER_49_758 VPWR VGND sg13g2_decap_8
XFILLER_45_953 VPWR VGND sg13g2_decap_8
XFILLER_16_121 VPWR VGND sg13g2_fill_1
XFILLER_32_603 VPWR VGND sg13g2_decap_8
XFILLER_13_850 VPWR VGND sg13g2_fill_1
X_2670_ net1027 VPWR _0026_ VGND _0572_ _0590_ sg13g2_o21ai_1
Xclkbuf_leaf_48_clk_regs clknet_3_4__leaf_clk_regs clknet_leaf_48_clk_regs VPWR VGND
+ sg13g2_buf_8
X_4340_ net684 VGND VPWR _0268_ u_usb_cdc.addr\[0\] clknet_leaf_44_clk_regs sg13g2_dfrbpq_2
XFILLER_28_1007 VPWR VGND sg13g2_decap_8
X_4271_ net655 VGND VPWR net144 u_usb_cdc.u_bulk_endps\[0\].u_bulk_endp.u_out_fifo.out_fifo_q\[33\]
+ clknet_leaf_2_clk_regs sg13g2_dfrbpq_1
X_3222_ _1238_ VPWR _0228_ VGND _1914_ net603 sg13g2_o21ai_1
X_3153_ VGND VPWR _1999_ net605 _0196_ _1201_ sg13g2_a21oi_1
X_2104_ VPWR _1961_ net915 VGND sg13g2_inv_1
X_3084_ net827 _1153_ _1154_ VPWR VGND sg13g2_nor2_2
XFILLER_48_780 VPWR VGND sg13g2_decap_8
XFILLER_36_986 VPWR VGND sg13g2_decap_8
XFILLER_23_647 VPWR VGND sg13g2_decap_4
X_3986_ _1821_ _0433_ u_usb_cdc.u_sie.u_phy_tx.tx_state_q\[1\] _2027_ u_usb_cdc.u_sie.u_phy_tx.tx_state_q\[2\]
+ VPWR VGND sg13g2_a22oi_1
X_2937_ _1076_ u_usb_cdc.u_bulk_endps\[0\].u_bulk_endp.u_in_fifo.u_sync_data.app_in_data_q\[7\]
+ _1059_ VPWR VGND sg13g2_nand2_1
X_2868_ net6 net1000 net646 _0079_ VPWR VGND sg13g2_mux2_1
X_2799_ net750 VPWR _0975_ VGND net839 _0974_ sg13g2_o21ai_1
Xhold320 u_usb_cdc.u_bulk_endps\[0\].u_bulk_endp.u_in_fifo.in_first_q\[3\] VPWR VGND
+ net363 sg13g2_dlygate4sd3_1
Xhold342 u_usb_cdc.u_sie.addr_q\[2\] VPWR VGND net385 sg13g2_dlygate4sd3_1
Xhold353 u_usb_cdc.u_bulk_endps\[0\].u_bulk_endp.u_out_fifo.out_fifo_q\[55\] VPWR
+ VGND net396 sg13g2_dlygate4sd3_1
Xhold331 u_usb_cdc.u_sie.u_phy_rx.se0_q VPWR VGND net374 sg13g2_dlygate4sd3_1
Xhold375 u_usb_cdc.u_ctrl_endp.endp_q\[0\] VPWR VGND net418 sg13g2_dlygate4sd3_1
Xhold386 _0277_ VPWR VGND net429 sg13g2_dlygate4sd3_1
XFILLER_7_9 VPWR VGND sg13g2_fill_1
Xhold364 _0069_ VPWR VGND net407 sg13g2_dlygate4sd3_1
X_4469_ net734 VGND VPWR net307 u_usb_cdc.u_sie.u_phy_rx.rx_err_q clknet_leaf_29_clk_regs
+ sg13g2_dfrbpq_1
Xfanout800 net802 net800 VPWR VGND sg13g2_buf_8
Xhold397 u_usb_cdc.u_bulk_endps\[0\].u_bulk_endp.u_out_fifo.out_fifo_q\[17\] VPWR
+ VGND net440 sg13g2_dlygate4sd3_1
Xfanout822 net823 net822 VPWR VGND sg13g2_buf_1
Xfanout833 net1044 net833 VPWR VGND sg13g2_buf_8
Xfanout811 net1038 net811 VPWR VGND sg13g2_buf_8
Xfanout844 net921 net844 VPWR VGND sg13g2_buf_8
XFILLER_46_739 VPWR VGND sg13g2_decap_8
XFILLER_26_32 VPWR VGND sg13g2_decap_8
XFILLER_27_975 VPWR VGND sg13g2_decap_8
XFILLER_42_945 VPWR VGND sg13g2_decap_8
XFILLER_13_157 VPWR VGND sg13g2_fill_2
XFILLER_42_20 VPWR VGND sg13g2_fill_2
XFILLER_9_128 VPWR VGND sg13g2_fill_2
XFILLER_42_31 VPWR VGND sg13g2_decap_4
XFILLER_49_555 VPWR VGND sg13g2_decap_8
XFILLER_45_794 VPWR VGND sg13g2_decap_8
X_3840_ net752 net717 _0436_ _0950_ _1725_ VPWR VGND sg13g2_nor4_1
X_3771_ _1652_ VPWR _1671_ VGND _1630_ _1670_ sg13g2_o21ai_1
XFILLER_34_1022 VPWR VGND sg13g2_decap_8
X_2722_ net391 net457 net744 _0918_ VPWR VGND sg13g2_nand3_1
X_2653_ _0854_ _0857_ _0863_ _0864_ VPWR VGND sg13g2_nor3_1
X_2584_ _0664_ _0699_ _0651_ _0807_ VPWR VGND _0806_ sg13g2_nand4_1
X_4323_ net653 VGND VPWR net936 u_usb_cdc.u_bulk_endps\[0\].u_bulk_endp.u_out_fifo.out_last_q\[1\]
+ clknet_leaf_9_clk_regs sg13g2_dfrbpq_2
X_4254_ net656 VGND VPWR net399 u_usb_cdc.u_bulk_endps\[0\].u_bulk_endp.u_out_fifo.out_fifo_q\[16\]
+ clknet_leaf_2_clk_regs sg13g2_dfrbpq_1