* NGSPICE file created from heichips25_usb_cdc.ext - technology: ihp-sg13g2

* Black-box entry subcircuit for sg13g2_fill_1 abstract view
.subckt sg13g2_fill_1 VDD VSS
.ends

* Black-box entry subcircuit for sg13g2_nand2_1 abstract view
.subckt sg13g2_nand2_1 Y A B VDD VSS
.ends

* Black-box entry subcircuit for sg13g2_inv_1 abstract view
.subckt sg13g2_inv_1 VDD Y A VSS
.ends

* Black-box entry subcircuit for sg13g2_decap_8 abstract view
.subckt sg13g2_decap_8 VDD VSS
.ends

* Black-box entry subcircuit for sg13g2_nor4_1 abstract view
.subckt sg13g2_nor4_1 A B C D Y VDD VSS
.ends

* Black-box entry subcircuit for sg13g2_dlygate4sd3_1 abstract view
.subckt sg13g2_dlygate4sd3_1 A VDD VSS X
.ends

* Black-box entry subcircuit for sg13g2_buf_8 abstract view
.subckt sg13g2_buf_8 A X VDD VSS
.ends

* Black-box entry subcircuit for sg13g2_o21ai_1 abstract view
.subckt sg13g2_o21ai_1 B1 VDD Y VSS A1 A2
.ends

* Black-box entry subcircuit for sg13g2_fill_2 abstract view
.subckt sg13g2_fill_2 VDD VSS
.ends

* Black-box entry subcircuit for sg13g2_nor2_1 abstract view
.subckt sg13g2_nor2_1 A B Y VDD VSS
.ends

* Black-box entry subcircuit for sg13g2_a21oi_2 abstract view
.subckt sg13g2_a21oi_2 VSS VDD B1 Y A2 A1
.ends

* Black-box entry subcircuit for sg13g2_nand3_1 abstract view
.subckt sg13g2_nand3_1 B C A Y VDD VSS
.ends

* Black-box entry subcircuit for sg13g2_dfrbpq_1 abstract view
.subckt sg13g2_dfrbpq_1 RESET_B VSS VDD D Q CLK
.ends

* Black-box entry subcircuit for sg13g2_decap_4 abstract view
.subckt sg13g2_decap_4 VDD VSS
.ends

* Black-box entry subcircuit for sg13g2_nor2_2 abstract view
.subckt sg13g2_nor2_2 A B Y VDD VSS
.ends

* Black-box entry subcircuit for sg13g2_dfrbpq_2 abstract view
.subckt sg13g2_dfrbpq_2 RESET_B VSS VDD D Q CLK
.ends

* Black-box entry subcircuit for sg13g2_a22oi_1 abstract view
.subckt sg13g2_a22oi_1 Y B1 B2 A2 A1 VDD VSS
.ends

* Black-box entry subcircuit for sg13g2_a21oi_1 abstract view
.subckt sg13g2_a21oi_1 VSS VDD A1 A2 Y B1
.ends

* Black-box entry subcircuit for sg13g2_or2_1 abstract view
.subckt sg13g2_or2_1 VSS VDD X B A
.ends

* Black-box entry subcircuit for sg13g2_nand2b_1 abstract view
.subckt sg13g2_nand2b_1 Y B A_N VDD VSS
.ends

* Black-box entry subcircuit for sg13g2_mux2_1 abstract view
.subckt sg13g2_mux2_1 A0 A1 S X VDD VSS
.ends

* Black-box entry subcircuit for sg13g2_xor2_1 abstract view
.subckt sg13g2_xor2_1 B A X VDD VSS
.ends

* Black-box entry subcircuit for sg13g2_inv_2 abstract view
.subckt sg13g2_inv_2 Y A VDD VSS
.ends

* Black-box entry subcircuit for sg13g2_buf_1 abstract view
.subckt sg13g2_buf_1 A X VDD VSS
.ends

* Black-box entry subcircuit for sg13g2_a221oi_1 abstract view
.subckt sg13g2_a221oi_1 VDD VSS B2 C1 B1 A1 Y A2
.ends

* Black-box entry subcircuit for sg13g2_inv_4 abstract view
.subckt sg13g2_inv_4 A Y VDD VSS
.ends

* Black-box entry subcircuit for sg13g2_a21o_1 abstract view
.subckt sg13g2_a21o_1 A2 A1 B1 X VDD VSS
.ends

* Black-box entry subcircuit for sg13g2_nand2b_2 abstract view
.subckt sg13g2_nand2b_2 Y B VDD VSS A_N
.ends

* Black-box entry subcircuit for sg13g2_inv_8 abstract view
.subckt sg13g2_inv_8 Y A VDD VSS
.ends

* Black-box entry subcircuit for sg13g2_buf_2 abstract view
.subckt sg13g2_buf_2 A X VDD VSS
.ends

* Black-box entry subcircuit for sg13g2_and3_2 abstract view
.subckt sg13g2_and3_2 X A B C VDD VSS
.ends

* Black-box entry subcircuit for sg13g2_xnor2_1 abstract view
.subckt sg13g2_xnor2_1 Y A B VDD VSS
.ends

* Black-box entry subcircuit for sg13g2_nor2b_1 abstract view
.subckt sg13g2_nor2b_1 A B_N Y VDD VSS
.ends

* Black-box entry subcircuit for sg13g2_nand2_2 abstract view
.subckt sg13g2_nand2_2 Y A B VDD VSS
.ends

* Black-box entry subcircuit for sg13g2_nand3b_1 abstract view
.subckt sg13g2_nand3b_1 B C Y VDD VSS A_N
.ends

* Black-box entry subcircuit for sg13g2_nand4_1 abstract view
.subckt sg13g2_nand4_1 B C A Y VDD VSS D
.ends

* Black-box entry subcircuit for sg13g2_nor3_1 abstract view
.subckt sg13g2_nor3_1 A B C Y VDD VSS
.ends

* Black-box entry subcircuit for sg13g2_nor3_2 abstract view
.subckt sg13g2_nor3_2 A B C Y VDD VSS
.ends

* Black-box entry subcircuit for sg13g2_and2_1 abstract view
.subckt sg13g2_and2_1 A B X VDD VSS
.ends

* Black-box entry subcircuit for sg13g2_mux4_1 abstract view
.subckt sg13g2_mux4_1 S0 A0 A1 A2 A3 S1 X VDD VSS
.ends

* Black-box entry subcircuit for sg13g2_tiehi abstract view
.subckt sg13g2_tiehi VDD VSS L_HI
.ends

* Black-box entry subcircuit for sg13g2_nor2b_2 abstract view
.subckt sg13g2_nor2b_2 A B_N Y VDD VSS
.ends

* Black-box entry subcircuit for sg13g2_or4_1 abstract view
.subckt sg13g2_or4_1 A B C D X VDD VSS
.ends

* Black-box entry subcircuit for sg13g2_and4_1 abstract view
.subckt sg13g2_and4_1 A B C D X VDD VSS
.ends

* Black-box entry subcircuit for sg13g2_or3_1 abstract view
.subckt sg13g2_or3_1 A B C X VDD VSS
.ends

* Black-box entry subcircuit for sg13g2_nor4_2 abstract view
.subckt sg13g2_nor4_2 A B C Y VSS VDD D
.ends

* Black-box entry subcircuit for sg13g2_a21o_2 abstract view
.subckt sg13g2_a21o_2 A2 A1 B1 X VDD VSS
.ends

* Black-box entry subcircuit for sg13g2_tielo abstract view
.subckt sg13g2_tielo VDD VSS L_LO
.ends

* Black-box entry subcircuit for sg13g2_and3_1 abstract view
.subckt sg13g2_and3_1 X A B C VDD VSS
.ends

.subckt heichips25_usb_cdc VGND VPWR clk ena rst_n ui_in[0] ui_in[1] ui_in[2] ui_in[3]
+ ui_in[4] ui_in[5] ui_in[6] ui_in[7] uio_in[0] uio_in[1] uio_in[2] uio_in[3] uio_in[4]
+ uio_in[5] uio_in[6] uio_in[7] uio_oe[0] uio_oe[1] uio_oe[2] uio_oe[3] uio_oe[4]
+ uio_oe[5] uio_oe[6] uio_oe[7] uio_out[0] uio_out[1] uio_out[2] uio_out[3] uio_out[4]
+ uio_out[5] uio_out[6] uio_out[7] uo_out[0] uo_out[1] uo_out[2] uo_out[3] uo_out[4]
+ uo_out[5] uo_out[6] uo_out[7] usb_dn_en_o usb_dn_rx_i usb_dn_tx_o usb_dp_en_o usb_dp_rx_i
+ usb_dp_tx_o
XFILLER_39_211 VPWR VGND sg13g2_fill_1
X_3155_ _1235_ net100 _1230_ VPWR VGND sg13g2_nand2_1
XFILLER_28_929 VPWR VGND sg13g2_fill_1
X_3086_ _1198_ net240 net606 VPWR VGND sg13g2_nand2_1
X_2106_ VPWR _1984_ net382 VGND sg13g2_inv_1
XFILLER_36_940 VPWR VGND sg13g2_decap_8
X_2037_ VPWR _1916_ u_usb_cdc.u_ctrl_endp.byte_cnt_q\[1\] VGND sg13g2_inv_1
XFILLER_22_155 VPWR VGND sg13g2_fill_1
X_3988_ net931 _1999_ _2003_ _0954_ _1872_ VPWR VGND sg13g2_nor4_1
X_2939_ _1117_ net87 _1110_ VPWR VGND sg13g2_nand2_1
Xhold362 net29 VPWR VGND net404 sg13g2_dlygate4sd3_1
XFILLER_2_516 VPWR VGND sg13g2_decap_8
Xhold351 u_usb_cdc.u_sie.u_phy_rx.cnt_q\[9\] VPWR VGND net393 sg13g2_dlygate4sd3_1
Xhold340 _0053_ VPWR VGND net382 sg13g2_dlygate4sd3_1
Xhold384 u_usb_cdc.u_bulk_endps\[0\].u_bulk_endp.u_in_fifo.in_fifo_q\[26\] VPWR VGND
+ net426 sg13g2_dlygate4sd3_1
Xhold373 _0055_ VPWR VGND net415 sg13g2_dlygate4sd3_1
Xhold395 _0115_ VPWR VGND net437 sg13g2_dlygate4sd3_1
Xfanout842 net1029 net842 VPWR VGND sg13g2_buf_8
Xfanout820 net821 net820 VPWR VGND sg13g2_buf_8
Xfanout831 u_usb_cdc.u_sie.phy_state_q\[10\] net831 VPWR VGND sg13g2_buf_8
XFILLER_46_704 VPWR VGND sg13g2_decap_8
XFILLER_19_929 VPWR VGND sg13g2_fill_1
XFILLER_42_921 VPWR VGND sg13g2_decap_8
XFILLER_42_998 VPWR VGND sg13g2_decap_8
XFILLER_6_800 VPWR VGND sg13g2_decap_8
XFILLER_6_877 VPWR VGND sg13g2_decap_8
XFILLER_1_582 VPWR VGND sg13g2_decap_8
XFILLER_3_1018 VPWR VGND sg13g2_decap_8
XFILLER_37_715 VPWR VGND sg13g2_fill_1
XFILLER_18_951 VPWR VGND sg13g2_decap_8
X_3911_ _1805_ net829 _2003_ VPWR VGND sg13g2_nand2_1
XFILLER_33_965 VPWR VGND sg13g2_decap_8
X_3842_ _1764_ VPWR _0390_ VGND _1765_ _1766_ sg13g2_o21ai_1
XFILLER_20_604 VPWR VGND sg13g2_fill_2
XFILLER_20_626 VPWR VGND sg13g2_fill_1
XFILLER_20_637 VPWR VGND sg13g2_fill_2
XFILLER_32_497 VPWR VGND sg13g2_decap_8
X_3773_ net291 _1716_ _1717_ VPWR VGND sg13g2_nor2_1
X_2724_ VGND VPWR _1893_ net38 _1975_ net829 sg13g2_a21oi_2
X_2655_ _0924_ _0925_ _0923_ _0029_ VPWR VGND sg13g2_nand3_1
X_4325_ net687 VGND VPWR _0327_ u_usb_cdc.u_sie.crc16_q\[4\] clknet_leaf_27_clk sg13g2_dfrbpq_1
X_2586_ _0868_ net840 net595 VPWR VGND sg13g2_nand2_1
X_4256_ net643 VGND VPWR _0258_ u_usb_cdc.u_bulk_endps\[0\].u_bulk_endp.u_out_fifo.out_first_q\[3\]
+ clknet_leaf_3_clk sg13g2_dfrbpq_1
XFILLER_41_1024 VPWR VGND sg13g2_decap_4
X_3207_ net809 net807 _1279_ VPWR VGND sg13g2_nor2_2
X_4187_ net646 VGND VPWR net315 u_usb_cdc.u_bulk_endps\[0\].u_bulk_endp.u_out_fifo.out_fifo_q\[23\]
+ clknet_leaf_2_clk sg13g2_dfrbpq_1
X_3138_ _1225_ VPWR _0227_ VGND _1899_ net627 sg13g2_o21ai_1
X_3069_ _1189_ net176 net609 VPWR VGND sg13g2_nand2_1
XFILLER_42_239 VPWR VGND sg13g2_fill_1
XFILLER_24_954 VPWR VGND sg13g2_fill_2
XFILLER_10_125 VPWR VGND sg13g2_decap_8
XFILLER_3_836 VPWR VGND sg13g2_decap_8
XFILLER_2_302 VPWR VGND sg13g2_fill_2
Xhold170 _0423_ VPWR VGND net212 sg13g2_dlygate4sd3_1
XFILLER_5_4 VPWR VGND sg13g2_fill_2
XFILLER_2_357 VPWR VGND sg13g2_decap_8
Xhold181 u_usb_cdc.u_bulk_endps\[0\].u_bulk_endp.u_out_fifo.out_fifo_q\[56\] VPWR
+ VGND net223 sg13g2_dlygate4sd3_1
Xhold192 u_usb_cdc.dp_pu_o VPWR VGND net234 sg13g2_dlygate4sd3_1
Xfanout650 net652 net650 VPWR VGND sg13g2_buf_8
Xfanout661 net664 net661 VPWR VGND sg13g2_buf_8
Xfanout694 net697 net694 VPWR VGND sg13g2_buf_8
Xfanout672 net675 net672 VPWR VGND sg13g2_buf_8
Xfanout683 net685 net683 VPWR VGND sg13g2_buf_8
XFILLER_19_759 VPWR VGND sg13g2_fill_1
XFILLER_34_729 VPWR VGND sg13g2_fill_2
XFILLER_15_998 VPWR VGND sg13g2_decap_8
X_2440_ u_usb_cdc.u_ctrl_endp.byte_cnt_q\[1\] _0547_ _0738_ VPWR VGND sg13g2_nor2_1
X_2371_ _0550_ _0670_ _0671_ VPWR VGND sg13g2_nor2_1
XFILLER_38_4 VPWR VGND sg13g2_fill_1
X_4110_ net669 VGND VPWR net457 u_usb_cdc.u_bulk_endps\[0\].u_bulk_endp.u_in_fifo.in_fifo_q\[30\]
+ clknet_leaf_17_clk sg13g2_dfrbpq_1
XFILLER_25_1019 VPWR VGND sg13g2_decap_8
X_4041_ net678 VGND VPWR net867 u_usb_cdc.u_ctrl_endp.state_q\[5\] clknet_leaf_7_clk
+ sg13g2_dfrbpq_2
XFILLER_49_361 VPWR VGND sg13g2_decap_8
XFILLER_37_578 VPWR VGND sg13g2_decap_8
XFILLER_37_589 VPWR VGND sg13g2_fill_2
XFILLER_33_795 VPWR VGND sg13g2_decap_4
X_3825_ _1738_ _1753_ _1754_ VPWR VGND sg13g2_nor2_1
XFILLER_20_434 VPWR VGND sg13g2_decap_8
XFILLER_20_478 VPWR VGND sg13g2_decap_8
X_3756_ _0889_ _1692_ net1011 _1702_ VPWR VGND sg13g2_nand3_1
X_2707_ _0962_ _0964_ _0961_ _0965_ VPWR VGND sg13g2_nand3_1
X_3687_ net790 VPWR _1657_ VGND _1655_ _1656_ sg13g2_o21ai_1
X_2638_ _0910_ net592 _0909_ net595 net975 VPWR VGND sg13g2_a22oi_1
X_2569_ _0626_ _0628_ _0856_ VPWR VGND sg13g2_nor2_1
X_4308_ net691 VGND VPWR net238 u_usb_cdc.u_sie.addr_q\[4\] clknet_leaf_46_clk sg13g2_dfrbpq_1
X_4239_ net642 VGND VPWR _0242_ u_usb_cdc.u_bulk_endps\[0\].u_bulk_endp.u_out_fifo.out_last_qq\[3\]
+ clknet_leaf_4_clk sg13g2_dfrbpq_2
XFILLER_16_707 VPWR VGND sg13g2_fill_2
XFILLER_28_567 VPWR VGND sg13g2_fill_1
XFILLER_15_206 VPWR VGND sg13g2_decap_8
XFILLER_8_917 VPWR VGND sg13g2_decap_8
XFILLER_12_979 VPWR VGND sg13g2_decap_8
XFILLER_48_1008 VPWR VGND sg13g2_decap_8
XFILLER_3_633 VPWR VGND sg13g2_decap_8
XFILLER_47_821 VPWR VGND sg13g2_decap_8
XFILLER_19_512 VPWR VGND sg13g2_fill_2
XFILLER_0_35 VPWR VGND sg13g2_decap_8
XFILLER_47_898 VPWR VGND sg13g2_decap_8
XFILLER_34_559 VPWR VGND sg13g2_fill_2
XFILLER_14_250 VPWR VGND sg13g2_decap_8
XFILLER_14_261 VPWR VGND sg13g2_fill_2
XFILLER_15_795 VPWR VGND sg13g2_fill_2
XFILLER_9_77 VPWR VGND sg13g2_fill_1
X_3610_ _1583_ u_usb_cdc.u_bulk_endps\[0\].u_bulk_endp.u_in_fifo.in_fifo_q\[67\] net626
+ VPWR VGND sg13g2_nand2_1
X_3541_ VPWR _1517_ _1516_ VGND sg13g2_inv_1
XFILLER_7_983 VPWR VGND sg13g2_decap_8
XFILLER_6_471 VPWR VGND sg13g2_decap_8
X_3472_ VGND VPWR u_usb_cdc.u_sie.delay_cnt_q\[0\] net742 _1470_ net507 sg13g2_a21oi_1
XFILLER_43_2 VPWR VGND sg13g2_fill_1
X_2423_ _0699_ _0714_ _0721_ VPWR VGND sg13g2_nor2_1
X_2354_ VGND VPWR _0654_ _0649_ net779 sg13g2_or2_1
X_2285_ _0587_ _1997_ _0586_ VPWR VGND sg13g2_nand2b_1
X_4024_ net676 VGND VPWR net972 u_usb_cdc.u_ctrl_endp.req_q\[4\] clknet_leaf_45_clk
+ sg13g2_dfrbpq_2
X_3808_ VGND VPWR net740 net318 _0381_ _1741_ sg13g2_a21oi_1
X_3739_ net751 net843 _0602_ _0362_ VPWR VGND sg13g2_mux2_1
XFILLER_0_647 VPWR VGND sg13g2_decap_8
XFILLER_28_331 VPWR VGND sg13g2_fill_1
XFILLER_44_857 VPWR VGND sg13g2_decap_8
XFILLER_43_323 VPWR VGND sg13g2_decap_8
XFILLER_28_397 VPWR VGND sg13g2_fill_1
XFILLER_31_507 VPWR VGND sg13g2_decap_8
XFILLER_24_570 VPWR VGND sg13g2_fill_1
XFILLER_12_754 VPWR VGND sg13g2_fill_2
XFILLER_34_96 VPWR VGND sg13g2_fill_1
XFILLER_8_769 VPWR VGND sg13g2_decap_8
XFILLER_4_942 VPWR VGND sg13g2_decap_8
XFILLER_3_452 VPWR VGND sg13g2_decap_8
XFILLER_3_441 VPWR VGND sg13g2_fill_2
XFILLER_38_128 VPWR VGND sg13g2_decap_8
X_2070_ VPWR _1949_ net502 VGND sg13g2_inv_1
XFILLER_38_139 VPWR VGND sg13g2_fill_1
XFILLER_19_375 VPWR VGND sg13g2_fill_2
XFILLER_19_397 VPWR VGND sg13g2_fill_2
XFILLER_35_835 VPWR VGND sg13g2_fill_1
X_2972_ _1041_ net997 _1055_ _0159_ VPWR VGND sg13g2_mux2_1
Xhold703 u_usb_cdc.u_bulk_endps\[0\].u_bulk_endp.u_in_fifo.u_sync_data.app_in_data_q\[1\]
+ VPWR VGND net1021 sg13g2_dlygate4sd3_1
Xhold736 u_usb_cdc.u_bulk_endps\[0\].u_bulk_endp.u_out_fifo.out_first_q\[0\] VPWR
+ VGND net1054 sg13g2_dlygate4sd3_1
Xhold725 u_usb_cdc.u_ctrl_endp.byte_cnt_q\[1\] VPWR VGND net1043 sg13g2_dlygate4sd3_1
Xhold714 u_usb_cdc.u_bulk_endps\[0\].u_bulk_endp.u_in_fifo.u_sync_data.app_in_data_q\[2\]
+ VPWR VGND net1032 sg13g2_dlygate4sd3_1
X_3524_ _1500_ _1494_ _1499_ net626 u_usb_cdc.u_bulk_endps\[0\].u_bulk_endp.u_in_fifo.in_fifo_q\[64\]
+ VPWR VGND sg13g2_a22oi_1
Xhold747 u_usb_cdc.u_bulk_endps\[0\].u_bulk_endp.u_in_fifo.in_last_q\[2\] VPWR VGND
+ net1065 sg13g2_dlygate4sd3_1
X_3455_ u_usb_cdc.u_ctrl_endp.addr_dd\[2\] u_usb_cdc.u_ctrl_endp.addr_dd\[5\] u_usb_cdc.u_ctrl_endp.addr_dd\[4\]
+ u_usb_cdc.u_ctrl_endp.addr_dd\[6\] _1457_ VPWR VGND sg13g2_nor4_1
X_2406_ net784 _0654_ _0661_ _0704_ _0706_ VPWR VGND sg13g2_nor4_1
X_3386_ VGND VPWR net567 _1411_ _0289_ _1410_ sg13g2_a21oi_1
X_2337_ net588 _0637_ _0638_ VPWR VGND sg13g2_nor2_2
X_2268_ net706 VPWR _0570_ VGND _0568_ _0569_ sg13g2_o21ai_1
XFILLER_26_824 VPWR VGND sg13g2_decap_8
X_4007_ _1886_ net85 _1885_ VPWR VGND sg13g2_nand2_1
X_2199_ u_usb_cdc.u_sie.data_q\[6\] net540 _0501_ VPWR VGND sg13g2_xor2_1
XFILLER_41_849 VPWR VGND sg13g2_fill_1
XFILLER_40_348 VPWR VGND sg13g2_decap_8
XFILLER_0_444 VPWR VGND sg13g2_decap_8
XFILLER_1_967 VPWR VGND sg13g2_decap_8
XFILLER_49_949 VPWR VGND sg13g2_decap_8
Xhold30 _0129_ VPWR VGND net72 sg13g2_dlygate4sd3_1
Xhold41 u_usb_cdc.u_bulk_endps\[0\].u_bulk_endp.u_in_fifo.in_fifo_q\[40\] VPWR VGND
+ net83 sg13g2_dlygate4sd3_1
Xhold52 _0104_ VPWR VGND net94 sg13g2_dlygate4sd3_1
Xhold63 _0175_ VPWR VGND net105 sg13g2_dlygate4sd3_1
Xhold74 u_usb_cdc.u_bulk_endps\[0\].u_bulk_endp.u_out_fifo.out_fifo_q\[70\] VPWR VGND
+ net116 sg13g2_dlygate4sd3_1
XFILLER_29_640 VPWR VGND sg13g2_fill_1
Xhold96 _0094_ VPWR VGND net138 sg13g2_dlygate4sd3_1
Xhold85 _0135_ VPWR VGND net127 sg13g2_dlygate4sd3_1
XFILLER_17_857 VPWR VGND sg13g2_fill_1
XFILLER_28_161 VPWR VGND sg13g2_decap_8
XFILLER_16_334 VPWR VGND sg13g2_decap_8
XFILLER_12_540 VPWR VGND sg13g2_decap_4
XFILLER_40_893 VPWR VGND sg13g2_decap_8
XFILLER_8_533 VPWR VGND sg13g2_fill_1
XFILLER_6_45 VPWR VGND sg13g2_decap_4
X_3240_ VGND VPWR _1309_ net63 net812 sg13g2_or2_1
XFILLER_3_293 VPWR VGND sg13g2_decap_8
X_3171_ _1244_ _1246_ _1243_ _1247_ VPWR VGND sg13g2_nand3_1
X_2122_ _2000_ _1993_ net623 VPWR VGND sg13g2_nand2_1
XFILLER_39_437 VPWR VGND sg13g2_fill_1
X_2053_ _1932_ net842 VPWR VGND sg13g2_inv_2
XFILLER_23_805 VPWR VGND sg13g2_fill_2
XFILLER_34_120 VPWR VGND sg13g2_fill_2
XFILLER_22_315 VPWR VGND sg13g2_decap_8
X_2955_ net430 u_usb_cdc.u_bulk_endps\[0\].u_bulk_endp.u_in_fifo.u_sync_data.app_in_data_q\[1\]
+ _1121_ _0148_ VPWR VGND sg13g2_mux2_1
X_2886_ _1094_ VPWR _0105_ VGND net824 _1095_ sg13g2_o21ai_1
Xhold511 _0001_ VPWR VGND net553 sg13g2_dlygate4sd3_1
Xhold500 u_usb_cdc.u_bulk_endps\[0\].u_bulk_endp.u_in_fifo.u_sync_data.app_in_valid_q
+ VPWR VGND net542 sg13g2_dlygate4sd3_1
X_3507_ _0336_ net572 _1950_ net575 _1940_ VPWR VGND sg13g2_a22oi_1
Xhold533 _0068_ VPWR VGND net851 sg13g2_dlygate4sd3_1
Xhold544 u_usb_cdc.u_sie.u_phy_rx.shift_register_q\[6\] VPWR VGND net862 sg13g2_dlygate4sd3_1
Xhold522 u_usb_cdc.u_bulk_endps\[0\].u_bulk_endp.u_in_fifo.u_sync_data.app_in_valid_qq
+ VPWR VGND net564 sg13g2_dlygate4sd3_1
Xhold566 u_usb_cdc.u_ctrl_endp.class_q VPWR VGND net884 sg13g2_dlygate4sd3_1
Xhold577 _0244_ VPWR VGND net895 sg13g2_dlygate4sd3_1
Xhold555 u_usb_cdc.u_sie.u_phy_rx.cnt_q\[7\] VPWR VGND net873 sg13g2_dlygate4sd3_1
Xhold588 u_usb_cdc.u_ctrl_endp.req_q\[6\] VPWR VGND net906 sg13g2_dlygate4sd3_1
XFILLER_44_1011 VPWR VGND sg13g2_decap_8
Xhold599 _0291_ VPWR VGND net917 sg13g2_dlygate4sd3_1
X_3438_ net764 net1002 net582 _0305_ VPWR VGND sg13g2_mux2_1
X_3369_ net920 _1399_ _1400_ VPWR VGND sg13g2_nor2_1
XFILLER_38_492 VPWR VGND sg13g2_fill_2
XFILLER_14_827 VPWR VGND sg13g2_decap_4
XFILLER_40_112 VPWR VGND sg13g2_decap_8
XFILLER_5_514 VPWR VGND sg13g2_fill_2
XFILLER_31_20 VPWR VGND sg13g2_fill_2
XFILLER_31_31 VPWR VGND sg13g2_decap_4
Xoutput31 net31 uo_out[2] VPWR VGND sg13g2_buf_1
Xoutput20 net20 uio_oe[6] VPWR VGND sg13g2_buf_1
XFILLER_0_263 VPWR VGND sg13g2_fill_2
XFILLER_1_764 VPWR VGND sg13g2_decap_8
XFILLER_49_746 VPWR VGND sg13g2_decap_8
XFILLER_48_278 VPWR VGND sg13g2_fill_1
XFILLER_45_996 VPWR VGND sg13g2_decap_8
XFILLER_17_676 VPWR VGND sg13g2_fill_2
XFILLER_32_624 VPWR VGND sg13g2_decap_4
XFILLER_32_679 VPWR VGND sg13g2_fill_1
X_2740_ u_usb_cdc.endp\[3\] _1985_ _0984_ _0987_ _0988_ VPWR VGND sg13g2_nor4_1
X_2671_ VPWR _0940_ _0939_ VGND sg13g2_inv_1
X_4410_ net731 VGND VPWR net388 u_usb_cdc.u_sie.u_phy_rx.nrzi_q\[3\] clknet_leaf_39_clk
+ sg13g2_dfrbpq_2
X_4341_ net686 VGND VPWR _0343_ u_usb_cdc.u_sie.data_q\[4\] clknet_leaf_24_clk sg13g2_dfrbpq_2
X_4272_ net680 VGND VPWR _0274_ u_usb_cdc.addr\[6\] clknet_leaf_45_clk sg13g2_dfrbpq_2
XFILLER_28_1028 VPWR VGND sg13g2_fill_1
X_3223_ VPWR VGND _1279_ _1293_ _1290_ net808 _1294_ _1289_ sg13g2_a221oi_1
X_3154_ _1234_ VPWR _0234_ VGND _1173_ _1229_ sg13g2_o21ai_1
XFILLER_28_908 VPWR VGND sg13g2_fill_1
X_3085_ _1197_ VPWR _0202_ VGND net719 net607 sg13g2_o21ai_1
X_2105_ VPWR _1983_ net136 VGND sg13g2_inv_1
X_2036_ net786 _1915_ VPWR VGND sg13g2_inv_4
XFILLER_36_996 VPWR VGND sg13g2_decap_8
X_3987_ _2001_ net1000 _1871_ VPWR VGND sg13g2_xor2_1
XFILLER_11_808 VPWR VGND sg13g2_fill_2
XFILLER_22_145 VPWR VGND sg13g2_fill_1
X_2938_ _1116_ VPWR _0136_ VGND net707 _1093_ sg13g2_o21ai_1
X_2869_ _1084_ net89 _1080_ VPWR VGND sg13g2_nand2_1
Xhold330 u_usb_cdc.u_sie.crc16_q\[3\] VPWR VGND net372 sg13g2_dlygate4sd3_1
Xhold352 _0390_ VPWR VGND net394 sg13g2_dlygate4sd3_1
Xhold341 _0037_ VPWR VGND net383 sg13g2_dlygate4sd3_1
Xhold385 _0109_ VPWR VGND net427 sg13g2_dlygate4sd3_1
Xhold396 u_usb_cdc.u_bulk_endps\[0\].u_bulk_endp.u_in_fifo.in_fifo_q\[7\] VPWR VGND
+ net438 sg13g2_dlygate4sd3_1
Xhold363 _1276_ VPWR VGND net405 sg13g2_dlygate4sd3_1
Xhold374 u_usb_cdc.u_bulk_endps\[0\].u_bulk_endp.u_out_fifo.out_fifo_q\[49\] VPWR
+ VGND net416 sg13g2_dlygate4sd3_1
Xfanout810 net811 net810 VPWR VGND sg13g2_buf_8
Xfanout821 net1057 net821 VPWR VGND sg13g2_buf_8
Xfanout832 net981 net832 VPWR VGND sg13g2_buf_8
XFILLER_19_919 VPWR VGND sg13g2_fill_1
XFILLER_42_900 VPWR VGND sg13g2_decap_8
XFILLER_27_985 VPWR VGND sg13g2_fill_1
Xclkbuf_3_6__f_clk clknet_0_clk clknet_3_6__leaf_clk VPWR VGND sg13g2_buf_8
XFILLER_42_977 VPWR VGND sg13g2_decap_8
XFILLER_41_487 VPWR VGND sg13g2_decap_8
XFILLER_13_189 VPWR VGND sg13g2_fill_1
XFILLER_5_311 VPWR VGND sg13g2_fill_1
XFILLER_6_856 VPWR VGND sg13g2_decap_8
XFILLER_5_388 VPWR VGND sg13g2_decap_8
XFILLER_1_561 VPWR VGND sg13g2_decap_8
XFILLER_3_68 VPWR VGND sg13g2_fill_1
XFILLER_49_554 VPWR VGND sg13g2_decap_8
XFILLER_49_598 VPWR VGND sg13g2_decap_4
XFILLER_18_930 VPWR VGND sg13g2_decap_8
XFILLER_17_451 VPWR VGND sg13g2_fill_1
XFILLER_33_911 VPWR VGND sg13g2_decap_4
X_3910_ VGND VPWR net735 _0952_ _0420_ net235 sg13g2_a21oi_1
XFILLER_33_944 VPWR VGND sg13g2_decap_8
X_3841_ _1739_ VPWR _1766_ VGND net393 _1762_ sg13g2_o21ai_1
X_3772_ _0589_ _0591_ _0981_ _1715_ _1716_ VPWR VGND sg13g2_nor4_1
XFILLER_32_487 VPWR VGND sg13g2_fill_1
X_2723_ net741 net520 _0043_ VPWR VGND sg13g2_nor2_1
XFILLER_8_193 VPWR VGND sg13g2_decap_8
X_2654_ _0925_ net892 net703 VPWR VGND sg13g2_nand2_1
X_2585_ _0646_ net888 _0867_ _0017_ VPWR VGND sg13g2_a21o_1
X_4324_ net688 VGND VPWR _0326_ u_usb_cdc.u_sie.crc16_q\[3\] clknet_leaf_27_clk sg13g2_dfrbpq_1
XFILLER_41_1003 VPWR VGND sg13g2_decap_8
X_4255_ net642 VGND VPWR net1025 u_usb_cdc.u_bulk_endps\[0\].u_bulk_endp.u_out_fifo.out_first_q\[2\]
+ clknet_leaf_2_clk sg13g2_dfrbpq_2
X_3206_ _1278_ net811 VPWR VGND net808 sg13g2_nand2b_2
X_4186_ net645 VGND VPWR net268 u_usb_cdc.u_bulk_endps\[0\].u_bulk_endp.u_out_fifo.out_fifo_q\[22\]
+ clknet_leaf_1_clk sg13g2_dfrbpq_1
XFILLER_28_716 VPWR VGND sg13g2_fill_2
X_3137_ _1225_ net248 net627 VPWR VGND sg13g2_nand2_1
XFILLER_27_204 VPWR VGND sg13g2_fill_2
X_3068_ _1188_ VPWR _0194_ VGND net719 net610 sg13g2_o21ai_1
XFILLER_36_760 VPWR VGND sg13g2_decap_4
X_2019_ _1898_ net753 VPWR VGND sg13g2_inv_8
XFILLER_3_815 VPWR VGND sg13g2_decap_8
Xhold160 u_usb_cdc.u_sie.u_phy_rx.cnt_q\[2\] VPWR VGND net202 sg13g2_dlygate4sd3_1
Xhold171 u_usb_cdc.u_sie.addr_q\[2\] VPWR VGND net213 sg13g2_dlygate4sd3_1
Xhold182 _0223_ VPWR VGND net224 sg13g2_dlygate4sd3_1
Xhold193 _1804_ VPWR VGND net235 sg13g2_dlygate4sd3_1
Xfanout640 net643 net640 VPWR VGND sg13g2_buf_8
Xfanout651 net652 net651 VPWR VGND sg13g2_buf_8
Xfanout662 net664 net662 VPWR VGND sg13g2_buf_8
Xfanout673 net675 net673 VPWR VGND sg13g2_buf_2
Xfanout684 net685 net684 VPWR VGND sg13g2_buf_8
Xfanout695 net697 net695 VPWR VGND sg13g2_buf_8
XFILLER_37_96 VPWR VGND sg13g2_decap_8
XFILLER_14_443 VPWR VGND sg13g2_fill_1
XFILLER_10_682 VPWR VGND sg13g2_fill_1
X_2370_ _0670_ net776 VPWR VGND net774 sg13g2_nand2b_2
XFILLER_49_351 VPWR VGND sg13g2_fill_1
XFILLER_49_340 VPWR VGND sg13g2_fill_2
X_4040_ net678 VGND VPWR net948 u_usb_cdc.ctrl_stall clknet_leaf_48_clk sg13g2_dfrbpq_2
XFILLER_49_384 VPWR VGND sg13g2_fill_1
XFILLER_45_590 VPWR VGND sg13g2_fill_2
XFILLER_20_402 VPWR VGND sg13g2_decap_8
XFILLER_21_925 VPWR VGND sg13g2_decap_8
X_3824_ _1753_ net278 net287 _1747_ VPWR VGND sg13g2_and3_2
X_3755_ net839 VPWR _1701_ VGND _0579_ _1018_ sg13g2_o21ai_1
X_3686_ net794 VPWR _1656_ VGND net802 u_usb_cdc.u_bulk_endps\[0\].u_bulk_endp.u_in_fifo.in_fifo_q\[54\]
+ sg13g2_o21ai_1
XFILLER_9_491 VPWR VGND sg13g2_decap_8
X_2706_ _0964_ net807 u_usb_cdc.u_bulk_endps\[0\].u_bulk_endp.u_out_fifo.out_last_q\[2\]
+ VPWR VGND sg13g2_xnor2_1
X_2637_ _0529_ _0908_ _0909_ VPWR VGND sg13g2_nor2b_1
XFILLER_0_829 VPWR VGND sg13g2_decap_8
X_2568_ VPWR _0012_ net1038 VGND sg13g2_inv_1
X_2499_ VPWR VGND _0795_ _0793_ _0794_ net760 _0796_ net758 sg13g2_a221oi_1
X_4307_ net679 VGND VPWR _0309_ u_usb_cdc.u_sie.addr_q\[3\] clknet_leaf_44_clk sg13g2_dfrbpq_1
X_4238_ net646 VGND VPWR net1058 u_usb_cdc.u_bulk_endps\[0\].u_bulk_endp.u_out_fifo.out_last_qq\[2\]
+ clknet_leaf_5_clk sg13g2_dfrbpq_2
XFILLER_28_524 VPWR VGND sg13g2_decap_8
X_4169_ net663 VGND VPWR net233 u_usb_cdc.u_bulk_endps\[0\].u_bulk_endp.u_out_fifo.out_fifo_q\[5\]
+ clknet_leaf_6_clk sg13g2_dfrbpq_1
XFILLER_11_457 VPWR VGND sg13g2_decap_4
XFILLER_12_958 VPWR VGND sg13g2_decap_8
XFILLER_3_689 VPWR VGND sg13g2_decap_8
XFILLER_2_155 VPWR VGND sg13g2_fill_1
XFILLER_47_800 VPWR VGND sg13g2_decap_8
XFILLER_0_14 VPWR VGND sg13g2_decap_8
XFILLER_47_877 VPWR VGND sg13g2_decap_8
XFILLER_46_398 VPWR VGND sg13g2_fill_2
XFILLER_46_387 VPWR VGND sg13g2_decap_8
XFILLER_30_700 VPWR VGND sg13g2_fill_2
XFILLER_31_1024 VPWR VGND sg13g2_decap_4
XFILLER_7_962 VPWR VGND sg13g2_decap_8
XFILLER_11_980 VPWR VGND sg13g2_decap_8
X_3540_ _1516_ _1917_ u_usb_cdc.u_ctrl_endp.req_q\[8\] VPWR VGND sg13g2_nand2_2
XFILLER_6_461 VPWR VGND sg13g2_fill_1
X_3471_ _1468_ _1469_ _0316_ VPWR VGND sg13g2_nor2_1
X_2422_ _0718_ _0719_ _0716_ _0720_ VPWR VGND sg13g2_nand3_1
X_2353_ net779 _0649_ _0653_ VPWR VGND sg13g2_nor2_2
X_4023_ net667 VGND VPWR net954 u_usb_cdc.u_ctrl_endp.req_q\[3\] clknet_leaf_49_clk
+ sg13g2_dfrbpq_1
X_2284_ _0586_ _0053_ u_usb_cdc.u_sie.u_phy_tx.tx_state_q\[3\] VPWR VGND sg13g2_nand2b_1
XFILLER_38_822 VPWR VGND sg13g2_decap_4
XFILLER_49_192 VPWR VGND sg13g2_decap_4
XFILLER_49_170 VPWR VGND sg13g2_fill_2
XFILLER_37_321 VPWR VGND sg13g2_decap_4
XFILLER_25_505 VPWR VGND sg13g2_fill_2
XFILLER_38_877 VPWR VGND sg13g2_decap_8
XFILLER_37_387 VPWR VGND sg13g2_decap_4
X_3807_ net318 net600 _1741_ VPWR VGND sg13g2_nor2_1
X_3738_ net752 net503 _0602_ _0361_ VPWR VGND sg13g2_mux2_1
X_3669_ VPWR VGND _1639_ _1516_ _1617_ _0552_ _1640_ _0850_ sg13g2_a221oi_1
XFILLER_0_626 VPWR VGND sg13g2_decap_8
XFILLER_44_836 VPWR VGND sg13g2_decap_8
XFILLER_28_387 VPWR VGND sg13g2_fill_1
XFILLER_34_42 VPWR VGND sg13g2_decap_8
XFILLER_15_1019 VPWR VGND sg13g2_decap_8
XFILLER_11_265 VPWR VGND sg13g2_decap_4
XFILLER_8_748 VPWR VGND sg13g2_decap_8
XFILLER_4_921 VPWR VGND sg13g2_decap_8
XFILLER_4_998 VPWR VGND sg13g2_decap_8
XFILLER_43_880 VPWR VGND sg13g2_decap_8
X_2971_ VPWR _0158_ _1127_ VGND sg13g2_inv_1
Xhold737 _0255_ VPWR VGND net1055 sg13g2_dlygate4sd3_1
Xhold726 u_usb_cdc.sie_out_err VPWR VGND net1044 sg13g2_dlygate4sd3_1
Xhold715 u_usb_cdc.u_bulk_endps\[0\].u_bulk_endp.u_in_fifo.u_sync_data.app_in_data_q\[4\]
+ VPWR VGND net1033 sg13g2_dlygate4sd3_1
Xhold704 u_usb_cdc.u_bulk_endps\[0\].u_bulk_endp.u_in_fifo.u_sync_data.app_in_data_q\[0\]
+ VPWR VGND net1022 sg13g2_dlygate4sd3_1
X_3523_ VGND VPWR _1496_ _1498_ _1499_ net788 sg13g2_a21oi_1
Xhold748 u_usb_cdc.u_bulk_endps\[0\].u_bulk_endp.u_in_fifo.in_last_q\[1\] VPWR VGND
+ net1066 sg13g2_dlygate4sd3_1
XFILLER_6_291 VPWR VGND sg13g2_fill_1
X_3454_ _1456_ _0647_ _1455_ net878 net738 VPWR VGND sg13g2_a22oi_1
X_2405_ net784 _0661_ _0705_ VPWR VGND sg13g2_nor2_2
X_3385_ net757 _1408_ _1411_ VPWR VGND sg13g2_nor2_1
X_2336_ _0635_ net738 _0637_ VPWR VGND _0631_ sg13g2_nand3b_1
X_2267_ _0564_ _0565_ net767 _0569_ VPWR VGND _0566_ sg13g2_nand4_1
Xclkbuf_leaf_49_clk clknet_3_1__leaf_clk clknet_leaf_49_clk VPWR VGND sg13g2_buf_8
XFILLER_29_129 VPWR VGND sg13g2_fill_2
X_4006_ _1885_ net632 _1884_ VPWR VGND sg13g2_nand2_1
X_2198_ u_usb_cdc.u_sie.data_q\[7\] net881 _0500_ VPWR VGND sg13g2_xor2_1
XFILLER_38_1019 VPWR VGND sg13g2_decap_4
XFILLER_5_729 VPWR VGND sg13g2_decap_8
XFILLER_0_423 VPWR VGND sg13g2_decap_8
XFILLER_1_946 VPWR VGND sg13g2_decap_8
XFILLER_49_928 VPWR VGND sg13g2_decap_8
Xhold20 _0103_ VPWR VGND net62 sg13g2_dlygate4sd3_1
Xhold31 u_usb_cdc.u_bulk_endps\[0\].u_bulk_endp.u_in_fifo.in_fifo_q\[41\] VPWR VGND
+ net73 sg13g2_dlygate4sd3_1
XFILLER_48_449 VPWR VGND sg13g2_fill_2
Xhold64 u_usb_cdc.u_bulk_endps\[0\].u_bulk_endp.u_in_fifo.in_fifo_q\[53\] VPWR VGND
+ net106 sg13g2_dlygate4sd3_1
Xhold53 u_usb_cdc.u_bulk_endps\[0\].u_bulk_endp.u_in_fifo.in_fifo_q\[8\] VPWR VGND
+ net95 sg13g2_dlygate4sd3_1
Xhold42 _0123_ VPWR VGND net84 sg13g2_dlygate4sd3_1
Xhold97 u_usb_cdc.u_bulk_endps\[0\].u_bulk_endp.u_out_fifo.out_fifo_q\[38\] VPWR VGND
+ net139 sg13g2_dlygate4sd3_1
Xhold75 _0237_ VPWR VGND net117 sg13g2_dlygate4sd3_1
Xhold86 u_usb_cdc.u_bulk_endps\[0\].u_bulk_endp.u_out_fifo.out_fifo_q\[62\] VPWR VGND
+ net128 sg13g2_dlygate4sd3_1
XFILLER_21_1012 VPWR VGND sg13g2_decap_8
XFILLER_21_1023 VPWR VGND sg13g2_fill_2
XFILLER_29_696 VPWR VGND sg13g2_decap_4
XFILLER_40_850 VPWR VGND sg13g2_fill_1
XFILLER_4_795 VPWR VGND sg13g2_decap_8
XFILLER_3_272 VPWR VGND sg13g2_fill_1
XFILLER_6_1028 VPWR VGND sg13g2_fill_1
XFILLER_6_1017 VPWR VGND sg13g2_decap_8
X_3170_ _1246_ net807 _1245_ VPWR VGND sg13g2_xnor2_1
XFILLER_39_405 VPWR VGND sg13g2_fill_2
XFILLER_0_990 VPWR VGND sg13g2_decap_8
X_2121_ _1999_ net743 _1997_ VPWR VGND sg13g2_nand2_2
X_2052_ VPWR _1931_ u_usb_cdc.u_ctrl_endp.req_q\[6\] VGND sg13g2_inv_1
XFILLER_48_994 VPWR VGND sg13g2_decap_8
XFILLER_31_850 VPWR VGND sg13g2_fill_2
X_2954_ net450 u_usb_cdc.u_bulk_endps\[0\].u_bulk_endp.u_in_fifo.u_sync_data.app_in_data_q\[0\]
+ _1121_ _0147_ VPWR VGND sg13g2_mux2_1
X_2885_ _1095_ u_usb_cdc.u_bulk_endps\[0\].u_bulk_endp.u_in_fifo.u_sync_data.app_in_data_q\[6\]
+ _1082_ VPWR VGND sg13g2_nand2_1
Xhold501 _0074_ VPWR VGND net543 sg13g2_dlygate4sd3_1
Xhold512 u_usb_cdc.u_bulk_endps\[0\].u_bulk_endp.u_in_fifo.in_fifo_q\[5\] VPWR VGND
+ net554 sg13g2_dlygate4sd3_1
X_3506_ _0335_ net572 _1951_ net575 _1941_ VPWR VGND sg13g2_a22oi_1
Xhold534 u_usb_cdc.u_sie.u_phy_rx.dp_q\[0\] VPWR VGND net852 sg13g2_dlygate4sd3_1
Xhold545 _1726_ VPWR VGND net863 sg13g2_dlygate4sd3_1
Xhold523 _1892_ VPWR VGND net565 sg13g2_dlygate4sd3_1
Xhold567 _0286_ VPWR VGND net885 sg13g2_dlygate4sd3_1
Xhold578 u_usb_cdc.addr\[4\] VPWR VGND net896 sg13g2_dlygate4sd3_1
Xhold556 net36 VPWR VGND net874 sg13g2_dlygate4sd3_1
Xhold589 _0007_ VPWR VGND net907 sg13g2_dlygate4sd3_1
X_3437_ VGND VPWR _1907_ net582 _0304_ _1447_ sg13g2_a21oi_1
X_3368_ _0724_ _1398_ _1399_ VPWR VGND sg13g2_nor2_2
X_2319_ _0588_ VPWR _0620_ VGND _0613_ _0619_ sg13g2_o21ai_1
X_3299_ _0257_ net808 _1354_ VPWR VGND sg13g2_xnor2_1
XFILLER_38_471 VPWR VGND sg13g2_decap_8
XFILLER_39_994 VPWR VGND sg13g2_decap_8
XFILLER_25_132 VPWR VGND sg13g2_decap_8
XFILLER_26_644 VPWR VGND sg13g2_decap_8
XFILLER_25_154 VPWR VGND sg13g2_decap_8
XFILLER_26_699 VPWR VGND sg13g2_decap_8
XFILLER_41_636 VPWR VGND sg13g2_decap_8
XFILLER_40_146 VPWR VGND sg13g2_fill_2
XFILLER_5_537 VPWR VGND sg13g2_decap_4
XFILLER_31_87 VPWR VGND sg13g2_fill_2
Xoutput32 net32 uo_out[3] VPWR VGND sg13g2_buf_1
Xoutput21 net21 uio_oe[7] VPWR VGND sg13g2_buf_1
XFILLER_0_220 VPWR VGND sg13g2_fill_2
XFILLER_1_743 VPWR VGND sg13g2_decap_8
XFILLER_49_725 VPWR VGND sg13g2_decap_8
XFILLER_0_286 VPWR VGND sg13g2_decap_8
XFILLER_17_600 VPWR VGND sg13g2_fill_2
XFILLER_36_419 VPWR VGND sg13g2_fill_2
XFILLER_45_975 VPWR VGND sg13g2_decap_8
X_2670_ _0915_ _0919_ net935 _0939_ VPWR VGND _0936_ sg13g2_nand4_1
X_4340_ net686 VGND VPWR _0342_ u_usb_cdc.u_sie.data_q\[3\] clknet_leaf_24_clk sg13g2_dfrbpq_2
X_4271_ net693 VGND VPWR _0273_ u_usb_cdc.addr\[5\] clknet_leaf_43_clk sg13g2_dfrbpq_2