*SPEF "ieee 1481-1999"
*DESIGN "heichips25_usb_cdc"
*DATE "05:32:43 Thursday August 14, 2025"
*VENDOR "The OpenROAD Project"
*PROGRAM "OpenROAD"
*VERSION "341650e72dad0dc8571822ff8c5d9c5e365327f7"
*DESIGN_FLOW "NAME_SCOPE LOCAL" "PIN_CAP NONE"
*DIVIDER /
*DELIMITER :
*BUS_DELIMITER []
*T_UNIT 1 NS
*C_UNIT 1 PF
*R_UNIT 1 OHM
*L_UNIT 1 HENRY

*NAME_MAP
*3 clk
*4 ena
*5 rst_n
*6 ui_in[0]
*7 ui_in[1]
*8 ui_in[2]
*9 ui_in[3]
*10 ui_in[4]
*11 ui_in[5]
*12 ui_in[6]
*13 ui_in[7]
*14 uio_in[0]
*15 uio_in[1]
*16 uio_in[2]
*17 uio_in[3]
*18 uio_in[4]
*19 uio_in[5]
*20 uio_in[6]
*21 uio_in[7]
*22 net32
*23 net33
*24 net34
*25 net39
*26 net40
*27 net41
*28 net42
*29 net43
*30 net35
*31 net36
*32 net37
*33 uio_out[3]
*34 uio_out[4]
*35 uio_out[5]
*36 uio_out[6]
*37 uio_out[7]
*38 uo_out[0]
*39 uo_out[1]
*40 uo_out[2]
*41 uo_out[3]
*42 uo_out[4]
*43 uo_out[5]
*44 uo_out[6]
*45 uo_out[7]
*46 usb_dn_en_o
*47 usb_dn_rx_i
*48 usb_dn_tx_o
*49 usb_dp_en_o
*50 usb_dp_rx_i
*51 usb_dp_tx_o
*52 usb_dp_up_o
*53 _0000_
*54 _0001_
*55 _0002_
*56 _0003_
*57 _0004_
*58 _0005_
*59 _0006_
*60 _0007_
*61 _0008_
*62 _0009_
*63 _0010_
*64 _0011_
*65 _0012_
*66 _0013_
*67 _0014_
*68 _0015_
*69 _0016_
*70 _0017_
*71 _0018_
*72 _0019_
*73 _0020_
*74 _0021_
*75 _0022_
*76 _0023_
*77 _0024_
*78 _0025_
*79 _0026_
*80 _0027_
*81 _0028_
*82 _0029_
*83 _0030_
*84 _0031_
*85 _0032_
*86 _0033_
*87 _0034_
*88 _0035_
*89 _0036_
*90 _0037_
*91 _0038_
*92 _0039_
*93 _0040_
*94 _0041_
*95 _0042_
*96 _0043_
*97 _0044_
*98 _0045_
*99 _0046_
*100 _0047_
*101 _0048_
*102 _0049_
*103 _0050_
*104 _0051_
*105 _0052_
*106 _0053_
*107 _0054_
*108 _0055_
*109 _0056_
*110 _0057_
*111 _0058_
*112 _0059_
*113 _0060_
*114 _0061_
*115 _0062_
*116 _0063_
*117 _0064_
*118 _0065_
*119 _0066_
*120 _0067_
*121 _0068_
*122 _0069_
*123 _0070_
*124 _0071_
*125 _0072_
*126 _0073_
*127 _0074_
*128 _0075_
*129 _0076_
*130 _0077_
*131 _0078_
*132 _0079_
*133 _0080_
*134 _0081_
*135 _0082_
*136 _0083_
*137 _0084_
*138 _0085_
*139 _0086_
*140 _0087_
*141 _0088_
*142 _0089_
*143 _0090_
*144 _0091_
*145 _0092_
*146 _0093_
*147 _0094_
*148 _0095_
*149 _0096_
*150 _0097_
*151 _0098_
*152 _0099_
*153 _0100_
*154 _0101_
*155 _0102_
*156 _0103_
*157 _0104_
*158 _0105_
*159 _0106_
*160 _0107_
*161 _0108_
*162 _0109_
*163 _0110_
*164 _0111_
*165 _0112_
*166 _0113_
*167 _0114_
*168 _0115_
*169 _0116_
*170 _0117_
*171 _0118_
*172 _0119_
*173 _0120_
*174 _0121_
*175 _0122_
*176 _0123_
*177 _0124_
*178 _0125_
*179 _0126_
*180 _0127_
*181 _0128_
*182 _0129_
*183 _0130_
*184 _0131_
*185 _0132_
*186 _0133_
*187 _0134_
*188 _0135_
*189 _0136_
*190 _0137_
*191 _0138_
*192 _0139_
*193 _0140_
*194 _0141_
*195 _0142_
*196 _0143_
*197 _0144_
*198 _0145_
*199 _0146_
*200 _0147_
*201 _0148_
*202 _0149_
*203 _0150_
*204 _0151_
*205 _0152_
*206 _0153_
*207 _0154_
*208 _0155_
*209 _0156_
*210 _0157_
*211 _0158_
*212 _0159_
*213 _0160_
*214 _0161_
*215 _0162_
*216 _0163_
*217 _0164_
*218 _0165_
*219 _0166_
*220 _0167_
*221 _0168_
*222 _0169_
*223 _0170_
*224 _0171_
*225 _0172_
*226 _0173_
*227 _0174_
*228 _0175_
*229 _0176_
*230 _0177_
*231 _0178_
*232 _0179_
*233 _0180_
*234 _0181_
*235 _0182_
*236 _0183_
*237 _0184_
*238 _0185_
*239 _0186_
*240 _0187_
*241 _0188_
*242 _0189_
*243 _0190_
*244 _0191_
*245 _0192_
*246 _0193_
*247 _0194_
*248 _0195_
*249 _0196_
*250 _0197_
*251 _0198_
*252 _0199_
*253 _0200_
*254 _0201_
*255 _0202_
*256 _0203_
*257 _0204_
*258 _0205_
*259 _0206_
*260 _0207_
*261 _0208_
*262 _0209_
*263 _0210_
*264 _0211_
*265 _0212_
*266 _0213_
*267 _0214_
*268 _0215_
*269 _0216_
*270 _0217_
*271 _0218_
*272 _0219_
*273 _0220_
*274 _0221_
*275 _0222_
*276 _0223_
*277 _0224_
*278 _0225_
*279 _0226_
*280 _0227_
*281 _0228_
*282 _0229_
*283 _0230_
*284 _0231_
*285 _0232_
*286 _0233_
*287 _0234_
*288 _0235_
*289 _0236_
*290 _0237_
*291 _0238_
*292 _0239_
*293 _0240_
*294 _0241_
*295 _0242_
*296 _0243_
*297 _0244_
*298 _0245_
*299 _0246_
*300 _0247_
*301 _0248_
*302 _0249_
*303 _0250_
*304 _0251_
*305 _0252_
*306 _0253_
*307 _0254_
*308 _0255_
*309 _0256_
*310 _0257_
*311 _0258_
*312 _0259_
*313 _0260_
*314 _0261_
*315 _0262_
*316 _0263_
*317 _0264_
*318 _0265_
*319 _0266_
*320 _0267_
*321 _0268_
*322 _0269_
*323 _0270_
*324 _0271_
*325 _0272_
*326 _0273_
*327 _0274_
*328 _0275_
*329 _0276_
*330 _0277_
*331 _0278_
*332 _0279_
*333 _0280_
*334 _0281_
*335 _0282_
*336 _0283_
*337 _0284_
*338 _0285_
*339 _0286_
*340 _0287_
*341 _0288_
*342 _0289_
*343 _0290_
*344 _0291_
*345 _0292_
*346 _0293_
*347 _0294_
*348 _0295_
*349 _0296_
*350 _0297_
*351 _0298_
*352 _0299_
*353 _0300_
*354 _0301_
*355 _0302_
*356 _0303_
*357 _0304_
*358 _0305_
*359 _0306_
*360 _0307_
*361 _0308_
*362 _0309_
*363 _0310_
*364 _0311_
*365 _0312_
*366 _0313_
*367 _0314_
*368 _0315_
*369 _0316_
*370 _0317_
*371 _0318_
*372 _0319_
*373 _0320_
*374 _0321_
*375 _0322_
*376 _0323_
*377 _0324_
*378 _0325_
*379 _0326_
*380 _0327_
*381 _0328_
*382 _0329_
*383 _0330_
*384 _0331_
*385 _0332_
*386 _0333_
*387 _0334_
*388 _0335_
*389 _0336_
*390 _0337_
*391 _0338_
*392 _0339_
*393 _0340_
*394 _0341_
*395 _0342_
*396 _0343_
*397 _0344_
*398 _0345_
*399 _0346_
*400 _0347_
*401 _0348_
*402 _0349_
*403 _0350_
*404 _0351_
*405 _0352_
*406 _0353_
*407 _0354_
*408 _0355_
*409 _0356_
*410 _0357_
*411 _0358_
*412 _0359_
*413 _0360_
*414 _0361_
*415 _0362_
*416 _0363_
*417 _0364_
*418 _0365_
*419 _0366_
*420 _0367_
*421 _0368_
*422 _0369_
*423 _0370_
*424 _0371_
*425 _0372_
*426 _0373_
*427 _0374_
*428 _0375_
*429 _0376_
*430 _0377_
*431 _0378_
*432 _0379_
*433 _0380_
*434 _0381_
*435 _0382_
*436 _0383_
*437 _0384_
*438 _0385_
*439 _0386_
*440 _0387_
*441 _0388_
*442 _0389_
*443 _0390_
*444 _0391_
*445 _0392_
*446 _0393_
*447 _0394_
*448 _0395_
*449 _0396_
*450 _0397_
*451 _0398_
*452 _0399_
*453 _0400_
*454 _0401_
*455 _0402_
*456 _0403_
*457 _0404_
*458 _0405_
*459 _0406_
*460 _0407_
*461 _0408_
*462 _0409_
*463 _0410_
*464 _0411_
*465 _0412_
*466 _0413_
*467 _0414_
*468 _0415_
*469 _0416_
*470 _0417_
*471 _0418_
*472 _0419_
*473 _0420_
*474 _0421_
*475 _0422_
*476 _0423_
*477 _0424_
*478 _0425_
*479 _0426_
*480 _0427_
*481 _0428_
*482 _0429_
*483 _0430_
*484 _0431_
*485 _0432_
*486 _0433_
*487 _0434_
*488 _0435_
*489 _0436_
*490 _0437_
*491 _0438_
*492 _0439_
*493 _0440_
*494 _0441_
*495 _0442_
*496 _0443_
*497 _0444_
*498 _0445_
*499 _0446_
*500 _0447_
*501 _0448_
*502 _0449_
*503 _0450_
*504 _0451_
*505 _0452_
*506 _0453_
*507 _0454_
*508 _0455_
*509 _0456_
*510 _0457_
*511 _0458_
*512 _0459_
*513 _0460_
*514 _0461_
*515 _0462_
*516 _0463_
*517 _0464_
*518 _0465_
*519 _0466_
*520 _0467_
*521 _0468_
*522 _0469_
*523 _0470_
*524 _0471_
*525 _0472_
*526 _0473_
*527 _0474_
*528 _0475_
*529 _0476_
*530 _0477_
*531 _0478_
*532 _0479_
*533 _0480_
*534 _0481_
*535 _0482_
*536 _0483_
*537 _0484_
*538 _0485_
*539 _0486_
*540 _0487_
*541 _0488_
*542 _0489_
*543 _0490_
*544 _0491_
*545 _0492_
*546 _0493_
*547 _0494_
*548 _0495_
*549 _0496_
*550 _0497_
*551 _0498_
*552 _0499_
*553 _0500_
*554 _0501_
*555 _0502_
*556 _0503_
*557 _0504_
*558 _0505_
*559 _0506_
*560 _0507_
*561 _0508_
*562 _0509_
*563 _0510_
*564 _0511_
*565 _0512_
*566 _0513_
*567 _0514_
*568 _0515_
*569 _0516_
*570 _0517_
*571 _0518_
*572 _0519_
*573 _0520_
*574 _0521_
*575 _0522_
*576 _0523_
*577 _0524_
*578 _0525_
*579 _0526_
*580 _0527_
*581 _0528_
*582 _0529_
*583 _0530_
*584 _0531_
*585 _0532_
*586 _0533_
*587 _0534_
*588 _0535_
*589 _0536_
*590 _0537_
*591 _0538_
*592 _0539_
*593 _0540_
*594 _0541_
*595 _0542_
*596 _0543_
*597 _0544_
*598 _0545_
*599 _0546_
*600 _0547_
*601 _0548_
*602 _0549_
*603 _0550_
*604 _0551_
*605 _0552_
*606 _0553_
*607 _0554_
*608 _0555_
*609 _0556_
*610 _0557_
*611 _0558_
*612 _0559_
*613 _0560_
*614 _0561_
*615 _0562_
*616 _0563_
*617 _0564_
*618 _0565_
*619 _0566_
*620 _0567_
*621 _0568_
*622 _0569_
*623 _0570_
*624 _0571_
*625 _0572_
*626 _0573_
*627 _0574_
*628 _0575_
*629 _0576_
*630 _0577_
*631 _0578_
*632 _0579_
*633 _0580_
*634 _0581_
*635 _0582_
*636 _0583_
*637 _0584_
*638 _0585_
*639 _0586_
*640 _0587_
*641 _0588_
*642 _0589_
*643 _0590_
*644 _0591_
*645 _0592_
*646 _0593_
*647 _0594_
*648 _0595_
*649 _0596_
*650 _0597_
*651 _0598_
*652 _0599_
*653 _0600_
*654 _0601_
*655 _0602_
*656 _0603_
*657 _0604_
*658 _0605_
*659 _0606_
*660 _0607_
*661 _0608_
*662 _0609_
*663 _0610_
*664 _0611_
*665 _0612_
*666 _0613_
*667 _0614_
*668 _0615_
*669 _0616_
*670 _0617_
*671 _0618_
*672 _0619_
*673 _0620_
*674 _0621_
*675 _0622_
*676 _0623_
*677 _0624_
*678 _0625_
*679 _0626_
*680 _0627_
*681 _0628_
*682 _0629_
*683 _0630_
*684 _0631_
*685 _0632_
*686 _0633_
*687 _0634_
*688 _0635_
*689 _0636_
*690 _0637_
*691 _0638_
*692 _0639_
*693 _0640_
*694 _0641_
*695 _0642_
*696 _0643_
*697 _0644_
*698 _0645_
*699 _0646_
*700 _0647_
*701 _0648_
*702 _0649_
*703 _0650_
*704 _0651_
*705 _0652_
*706 _0653_
*707 _0654_
*708 _0655_
*709 _0656_
*710 _0657_
*711 _0658_
*712 _0659_
*713 _0660_
*714 _0661_
*715 _0662_
*716 _0663_
*717 _0664_
*718 _0665_
*719 _0666_
*720 _0667_
*721 _0668_
*722 _0669_
*723 _0670_
*724 _0671_
*725 _0672_
*726 _0673_
*727 _0674_
*728 _0675_
*729 _0676_
*730 _0677_
*731 _0678_
*732 _0679_
*733 _0680_
*734 _0681_
*735 _0682_
*736 _0683_
*737 _0684_
*738 _0685_
*739 _0686_
*740 _0687_
*741 _0688_
*742 _0689_
*743 _0690_
*744 _0691_
*745 _0692_
*746 _0693_
*747 _0694_
*748 _0695_
*749 _0696_
*750 _0697_
*751 _0698_
*752 _0699_
*753 _0700_
*754 _0701_
*755 _0702_
*756 _0703_
*757 _0704_
*758 _0705_
*759 _0706_
*760 _0707_
*761 _0708_
*762 _0709_
*763 _0710_
*764 _0711_
*765 _0712_
*766 _0713_
*767 _0714_
*768 _0715_
*769 _0716_
*770 _0717_
*771 _0718_
*772 _0719_
*773 _0720_
*774 _0721_
*775 _0722_
*776 _0723_
*777 _0724_
*778 _0725_
*779 _0726_
*780 _0727_
*781 _0728_
*782 _0729_
*783 _0730_
*784 _0731_
*785 _0732_
*786 _0733_
*787 _0734_
*788 _0735_
*789 _0736_
*790 _0737_
*791 _0738_
*792 _0739_
*793 _0740_
*794 _0741_
*795 _0742_
*796 _0743_
*797 _0744_
*798 _0745_
*799 _0746_
*800 _0747_
*801 _0748_
*802 _0749_
*803 _0750_
*804 _0751_
*805 _0752_
*806 _0753_
*807 _0754_
*808 _0755_
*809 _0756_
*810 _0757_
*811 _0758_
*812 _0759_
*813 _0760_
*814 _0761_
*815 _0762_
*816 _0763_
*817 _0764_
*818 _0765_
*819 _0766_
*820 _0767_
*821 _0768_
*822 _0769_
*823 _0770_
*824 _0771_
*825 _0772_
*826 _0773_
*827 _0774_
*828 _0775_
*829 _0776_
*830 _0777_
*831 _0778_
*832 _0779_
*833 _0780_
*834 _0781_
*835 _0782_
*836 _0783_
*837 _0784_
*838 _0785_
*839 _0786_
*840 _0787_
*841 _0788_
*842 _0789_
*843 _0790_
*844 _0791_
*845 _0792_
*846 _0793_
*847 _0794_
*848 _0795_
*849 _0796_
*850 _0797_
*851 _0798_
*852 _0799_
*853 _0800_
*854 _0801_
*855 _0802_
*856 _0803_
*857 _0804_
*858 _0805_
*859 _0806_
*860 _0807_
*861 _0808_
*862 _0809_
*863 _0810_
*864 _0811_
*865 _0812_
*866 _0813_
*867 _0814_
*868 _0815_
*869 _0816_
*870 _0817_
*871 _0818_
*872 _0819_
*873 _0820_
*874 _0821_
*875 _0822_
*876 _0823_
*877 _0824_
*878 _0825_
*879 _0826_
*880 _0827_
*881 _0828_
*882 _0829_
*883 _0830_
*884 _0831_
*885 _0832_
*886 _0833_
*887 _0834_
*888 _0835_
*889 _0836_
*890 _0837_
*891 _0838_
*892 _0839_
*893 _0840_
*894 _0841_
*895 _0842_
*896 _0843_
*897 _0844_
*898 _0845_
*899 _0846_
*900 _0847_
*901 _0848_
*902 _0849_
*903 _0850_
*904 _0851_
*905 _0852_
*906 _0853_
*907 _0854_
*908 _0855_
*909 _0856_
*910 _0857_
*911 _0858_
*912 _0859_
*913 _0860_
*914 _0861_
*915 _0862_
*916 _0863_
*917 _0864_
*918 _0865_
*919 _0866_
*920 _0867_
*921 _0868_
*922 _0869_
*923 _0870_
*924 _0871_
*925 _0872_
*926 _0873_
*927 _0874_
*928 _0875_
*929 _0876_
*930 _0877_
*931 _0878_
*932 _0879_
*933 _0880_
*934 _0881_
*935 _0882_
*936 _0883_
*937 _0884_
*938 _0885_
*939 _0886_
*940 _0887_
*941 _0888_
*942 _0889_
*943 _0890_
*944 _0891_
*945 _0892_
*946 _0893_
*947 _0894_
*948 _0895_
*949 _0896_
*950 _0897_
*951 _0898_
*952 _0899_
*953 _0900_
*954 _0901_
*955 _0902_
*956 _0903_
*957 _0904_
*958 _0905_
*959 _0906_
*960 _0907_
*961 _0908_
*962 _0909_
*963 _0910_
*964 _0911_
*965 _0912_
*966 _0913_
*967 _0914_
*968 _0915_
*969 _0916_
*970 _0917_
*971 _0918_
*972 _0919_
*973 _0920_
*974 _0921_
*975 _0922_
*976 _0923_
*977 _0924_
*978 _0925_
*979 _0926_
*980 _0927_
*981 _0928_
*982 _0929_
*983 _0930_
*984 _0931_
*985 _0932_
*986 _0933_
*987 _0934_
*988 _0935_
*989 _0936_
*990 _0937_
*991 _0938_
*992 _0939_
*993 _0940_
*994 _0941_
*995 _0942_
*996 _0943_
*997 _0944_
*998 _0945_
*999 _0946_
*1000 _0947_
*1001 _0948_
*1002 _0949_
*1003 _0950_
*1004 _0951_
*1005 _0952_
*1006 _0953_
*1007 _0954_
*1008 _0955_
*1009 _0956_
*1010 _0957_
*1011 _0958_
*1012 _0959_
*1013 _0960_
*1014 _0961_
*1015 _0962_
*1016 _0963_
*1017 _0964_
*1018 _0965_
*1019 _0966_
*1020 _0967_
*1021 _0968_
*1022 _0969_
*1023 _0970_
*1024 _0971_
*1025 _0972_
*1026 _0973_
*1027 _0974_
*1028 _0975_
*1029 _0976_
*1030 _0977_
*1031 _0978_
*1032 _0979_
*1033 _0980_
*1034 _0981_
*1035 _0982_
*1036 _0983_
*1037 _0984_
*1038 _0985_
*1039 _0986_
*1040 _0987_
*1041 _0988_
*1042 _0989_
*1043 _0990_
*1044 _0991_
*1045 _0992_
*1046 _0993_
*1047 _0994_
*1048 _0995_
*1049 _0996_
*1050 _0997_
*1051 _0998_
*1052 _0999_
*1053 _1000_
*1054 _1001_
*1055 _1002_
*1056 _1003_
*1057 _1004_
*1058 _1005_
*1059 _1006_
*1060 _1007_
*1061 _1008_
*1062 _1009_
*1063 _1010_
*1064 _1011_
*1065 _1012_
*1066 _1013_
*1067 _1014_
*1068 _1015_
*1069 _1016_
*1070 _1017_
*1071 _1018_
*1072 _1019_
*1073 _1020_
*1074 _1021_
*1075 _1022_
*1076 _1023_
*1077 _1024_
*1078 _1025_
*1079 _1026_
*1080 _1027_
*1081 _1028_
*1082 _1029_
*1083 _1030_
*1084 _1031_
*1085 _1032_
*1086 _1033_
*1087 _1034_
*1088 _1035_
*1089 _1036_
*1090 _1037_
*1091 _1038_
*1092 _1039_
*1093 _1040_
*1094 _1041_
*1095 _1042_
*1096 _1043_
*1097 _1044_
*1098 _1045_
*1099 _1046_
*1100 _1047_
*1101 _1048_
*1102 _1049_
*1103 _1050_
*1104 _1051_
*1105 _1052_
*1106 _1053_
*1107 _1054_
*1108 _1055_
*1109 _1056_
*1110 _1057_
*1111 _1058_
*1112 _1059_
*1113 _1060_
*1114 _1061_
*1115 _1062_
*1116 _1063_
*1117 _1064_
*1118 _1065_
*1119 _1066_
*1120 _1067_
*1121 _1068_
*1122 _1069_
*1123 _1070_
*1124 _1071_
*1125 _1072_
*1126 _1073_
*1127 _1074_
*1128 _1075_
*1129 _1076_
*1130 _1077_
*1131 _1078_
*1132 _1079_
*1133 _1080_
*1134 _1081_
*1135 _1082_
*1136 _1083_
*1137 _1084_
*1138 _1085_
*1139 _1086_
*1140 _1087_
*1141 _1088_
*1142 _1089_
*1143 _1090_
*1144 _1091_
*1145 _1092_
*1146 _1093_
*1147 _1094_
*1148 _1095_
*1149 _1096_
*1150 _1097_
*1151 _1098_
*1152 _1099_
*1153 _1100_
*1154 _1101_
*1155 _1102_
*1156 _1103_
*1157 _1104_
*1158 _1105_
*1159 _1106_
*1160 _1107_
*1161 _1108_
*1162 _1109_
*1163 _1110_
*1164 _1111_
*1165 _1112_
*1166 _1113_
*1167 _1114_
*1168 _1115_
*1169 _1116_
*1170 _1117_
*1171 _1118_
*1172 _1119_
*1173 _1120_
*1174 _1121_
*1175 _1122_
*1176 _1123_
*1177 _1124_
*1178 _1125_
*1179 _1126_
*1180 _1127_
*1181 _1128_
*1182 _1129_
*1183 _1130_
*1184 _1131_
*1185 _1132_
*1186 _1133_
*1187 _1134_
*1188 _1135_
*1189 _1136_
*1190 _1137_
*1191 _1138_
*1192 _1139_
*1193 _1140_
*1194 _1141_
*1195 _1142_
*1196 _1143_
*1197 _1144_
*1198 _1145_
*1199 _1146_
*1200 _1147_
*1201 _1148_
*1202 _1149_
*1203 _1150_
*1204 _1151_
*1205 _1152_
*1206 _1153_
*1207 _1154_
*1208 _1155_
*1209 _1156_
*1210 _1157_
*1211 _1158_
*1212 _1159_
*1213 _1160_
*1214 _1161_
*1215 _1162_
*1216 _1163_
*1217 _1164_
*1218 _1165_
*1219 _1166_
*1220 _1167_
*1221 _1168_
*1222 _1169_
*1223 _1170_
*1224 _1171_
*1225 _1172_
*1226 _1173_
*1227 _1174_
*1228 _1175_
*1229 _1176_
*1230 _1177_
*1231 _1178_
*1232 _1179_
*1233 _1180_
*1234 _1181_
*1235 _1182_
*1236 _1183_
*1237 _1184_
*1238 _1185_
*1239 _1186_
*1240 _1187_
*1241 _1188_
*1242 _1189_
*1243 _1190_
*1244 _1191_
*1245 _1192_
*1246 _1193_
*1247 _1194_
*1248 _1195_
*1249 _1196_
*1250 _1197_
*1251 _1198_
*1252 _1199_
*1253 _1200_
*1254 _1201_
*1255 _1202_
*1256 _1203_
*1257 _1204_
*1258 _1205_
*1259 _1206_
*1260 _1207_
*1261 _1208_
*1262 _1209_
*1263 _1210_
*1264 _1211_
*1265 _1212_
*1266 _1213_
*1267 _1214_
*1268 _1215_
*1269 _1216_
*1270 _1217_
*1271 _1218_
*1272 _1219_
*1273 _1220_
*1274 _1221_
*1275 _1222_
*1276 _1223_
*1277 _1224_
*1278 _1225_
*1279 _1226_
*1280 _1227_
*1281 _1228_
*1282 _1229_
*1283 _1230_
*1284 _1231_
*1285 _1232_
*1286 _1233_
*1287 _1234_
*1288 _1235_
*1289 _1236_
*1290 _1237_
*1291 _1238_
*1292 _1239_
*1293 _1240_
*1294 _1241_
*1295 _1242_
*1296 _1243_
*1297 _1244_
*1298 _1245_
*1299 _1246_
*1300 _1247_
*1301 _1248_
*1302 _1249_
*1303 _1250_
*1304 _1251_
*1305 _1252_
*1306 _1253_
*1307 _1254_
*1308 _1255_
*1309 _1256_
*1310 _1257_
*1311 _1258_
*1312 _1259_
*1313 _1260_
*1314 _1261_
*1315 _1262_
*1316 _1263_
*1317 _1264_
*1318 _1265_
*1319 _1266_
*1320 _1267_
*1321 _1268_
*1322 _1269_
*1323 _1270_
*1324 _1271_
*1325 _1272_
*1326 _1273_
*1327 _1274_
*1328 _1275_
*1329 _1276_
*1330 _1277_
*1331 _1278_
*1332 _1279_
*1333 _1280_
*1334 _1281_
*1335 _1282_
*1336 _1283_
*1337 _1284_
*1338 _1285_
*1339 _1286_
*1340 _1287_
*1341 _1288_
*1342 _1289_
*1343 _1290_
*1344 _1291_
*1345 _1292_
*1346 _1293_
*1347 _1294_
*1348 _1295_
*1349 _1296_
*1350 _1297_
*1351 _1298_
*1352 _1299_
*1353 _1300_
*1354 _1301_
*1355 _1302_
*1356 _1303_
*1357 _1304_
*1358 _1305_
*1359 _1306_
*1360 _1307_
*1361 _1308_
*1362 _1309_
*1363 _1310_
*1364 _1311_
*1365 _1312_
*1366 _1313_
*1367 _1314_
*1368 _1315_
*1369 _1316_
*1370 _1317_
*1371 _1318_
*1372 _1319_
*1373 _1320_
*1374 _1321_
*1375 _1322_
*1376 _1323_
*1377 _1324_
*1378 _1325_
*1379 _1326_
*1380 _1327_
*1381 _1328_
*1382 _1329_
*1383 _1330_
*1384 _1331_
*1385 _1332_
*1386 _1333_
*1387 _1334_
*1388 _1335_
*1389 _1336_
*1390 _1337_
*1391 _1338_
*1392 _1339_
*1393 _1340_
*1394 _1341_
*1395 _1342_
*1396 _1343_
*1397 _1344_
*1398 _1345_
*1399 _1346_
*1400 _1347_
*1401 _1348_
*1402 _1349_
*1403 _1350_
*1404 _1351_
*1405 _1352_
*1406 _1353_
*1407 _1354_
*1408 _1355_
*1409 _1356_
*1410 _1357_
*1411 _1358_
*1412 _1359_
*1413 _1360_
*1414 _1361_
*1415 _1362_
*1416 _1363_
*1417 _1364_
*1418 _1365_
*1419 _1366_
*1420 _1367_
*1421 _1368_
*1422 _1369_
*1423 _1370_
*1424 _1371_
*1425 _1372_
*1426 _1373_
*1427 _1374_
*1428 _1375_
*1429 _1376_
*1430 _1377_
*1431 _1378_
*1432 _1379_
*1433 _1380_
*1434 _1381_
*1435 _1382_
*1436 _1383_
*1437 _1384_
*1438 _1385_
*1439 _1386_
*1440 _1387_
*1441 _1388_
*1442 _1389_
*1443 _1390_
*1444 _1391_
*1445 _1392_
*1446 _1393_
*1447 _1394_
*1448 _1395_
*1449 _1396_
*1450 _1397_
*1451 _1398_
*1452 _1399_
*1453 _1400_
*1454 _1401_
*1455 _1402_
*1456 _1403_
*1457 _1404_
*1458 _1405_
*1459 _1406_
*1460 _1407_
*1461 _1408_
*1462 _1409_
*1463 _1410_
*1464 _1411_
*1465 _1412_
*1466 _1413_
*1467 _1414_
*1468 _1415_
*1469 _1416_
*1470 _1417_
*1471 _1418_
*1472 _1419_
*1473 _1420_
*1474 _1421_
*1475 _1422_
*1476 _1423_
*1477 _1424_
*1478 _1425_
*1479 _1426_
*1480 _1427_
*1481 _1428_
*1482 _1429_
*1483 _1430_
*1484 _1431_
*1485 _1432_
*1486 _1433_
*1487 _1434_
*1488 _1435_
*1489 _1436_
*1490 _1437_
*1491 _1438_
*1492 _1439_
*1493 _1440_
*1494 _1441_
*1495 _1442_
*1496 _1443_
*1497 _1444_
*1498 _1445_
*1499 _1446_
*1500 _1447_
*1501 _1448_
*1502 _1449_
*1503 _1450_
*1504 _1451_
*1505 _1452_
*1506 _1453_
*1507 _1454_
*1508 _1455_
*1509 _1456_
*1510 _1457_
*1511 _1458_
*1512 _1459_
*1513 _1460_
*1514 _1461_
*1515 _1462_
*1516 _1463_
*1517 _1464_
*1518 _1465_
*1519 _1466_
*1520 _1467_
*1521 _1468_
*1522 _1469_
*1523 _1470_
*1524 _1471_
*1525 _1472_
*1526 _1473_
*1527 _1474_
*1528 _1475_
*1529 _1476_
*1530 _1477_
*1531 _1478_
*1532 _1479_
*1533 _1480_
*1534 _1481_
*1535 _1482_
*1536 _1483_
*1537 _1484_
*1538 _1485_
*1539 _1486_
*1540 _1487_
*1541 _1488_
*1542 _1489_
*1543 _1490_
*1544 _1491_
*1545 _1492_
*1546 _1493_
*1547 _1494_
*1548 _1495_
*1549 _1496_
*1550 _1497_
*1551 _1498_
*1552 _1499_
*1553 _1500_
*1554 _1501_
*1555 _1502_
*1556 _1503_
*1557 _1504_
*1558 _1505_
*1559 _1506_
*1560 _1507_
*1561 _1508_
*1562 _1509_
*1563 _1510_
*1564 _1511_
*1565 _1512_
*1566 _1513_
*1567 _1514_
*1568 _1515_
*1569 _1516_
*1570 _1517_
*1571 _1518_
*1572 _1519_
*1573 _1520_
*1574 _1521_
*1575 _1522_
*1576 _1523_
*1577 _1524_
*1578 _1525_
*1579 _1526_
*1580 _1527_
*1581 _1528_
*1582 _1529_
*1583 _1530_
*1584 _1531_
*1585 _1532_
*1586 _1533_
*1587 _1534_
*1588 _1535_
*1589 _1536_
*1590 _1537_
*1591 _1538_
*1592 _1539_
*1593 _1540_
*1594 _1541_
*1595 _1542_
*1596 _1543_
*1597 _1544_
*1598 _1545_
*1599 _1546_
*1600 _1547_
*1601 _1548_
*1602 _1549_
*1603 _1550_
*1604 _1551_
*1605 _1552_
*1606 _1553_
*1607 _1554_
*1608 _1555_
*1609 _1556_
*1610 _1557_
*1611 _1558_
*1612 _1559_
*1613 _1560_
*1614 _1561_
*1615 _1562_
*1616 _1563_
*1617 _1564_
*1618 _1565_
*1619 _1566_
*1620 _1567_
*1621 _1568_
*1622 _1569_
*1623 _1570_
*1624 _1571_
*1625 _1572_
*1626 _1573_
*1627 _1574_
*1628 _1575_
*1629 _1576_
*1630 _1577_
*1631 _1578_
*1632 _1579_
*1633 _1580_
*1634 _1581_
*1635 _1582_
*1636 _1583_
*1637 _1584_
*1638 _1585_
*1639 _1586_
*1640 _1587_
*1641 _1588_
*1642 _1589_
*1643 _1590_
*1644 _1591_
*1645 _1592_
*1646 _1593_
*1647 _1594_
*1648 _1595_
*1649 _1596_
*1650 _1597_
*1651 _1598_
*1652 _1599_
*1653 _1600_
*1654 _1601_
*1655 _1602_
*1656 _1603_
*1657 _1604_
*1658 _1605_
*1659 _1606_
*1660 _1607_
*1661 _1608_
*1662 _1609_
*1663 _1610_
*1664 _1611_
*1665 _1612_
*1666 _1613_
*1667 _1614_
*1668 _1615_
*1669 _1616_
*1670 _1617_
*1671 _1618_
*1672 _1619_
*1673 _1620_
*1674 _1621_
*1675 _1622_
*1676 _1623_
*1677 _1624_
*1678 _1625_
*1679 _1626_
*1680 _1627_
*1681 _1628_
*1682 _1629_
*1683 _1630_
*1684 _1631_
*1685 _1632_
*1686 _1633_
*1687 _1634_
*1688 _1635_
*1689 _1636_
*1690 _1637_
*1691 _1638_
*1692 _1639_
*1693 _1640_
*1694 _1641_
*1695 _1642_
*1696 _1643_
*1697 _1644_
*1698 _1645_
*1699 _1646_
*1700 _1647_
*1701 _1648_
*1702 _1649_
*1703 _1650_
*1704 _1651_
*1705 _1652_
*1706 _1653_
*1707 _1654_
*1708 _1655_
*1709 _1656_
*1710 _1657_
*1711 _1658_
*1712 _1659_
*1713 _1660_
*1714 _1661_
*1715 _1662_
*1716 _1663_
*1717 _1664_
*1718 _1665_
*1719 _1666_
*1720 _1667_
*1721 _1668_
*1722 _1669_
*1723 _1670_
*1724 _1671_
*1725 _1672_
*1726 _1673_
*1727 _1674_
*1728 _1675_
*1729 _1676_
*1730 _1677_
*1731 _1678_
*1732 _1679_
*1733 _1680_
*1734 _1681_
*1735 _1682_
*1736 _1683_
*1737 _1684_
*1738 _1685_
*1739 _1686_
*1740 _1687_
*1741 _1688_
*1742 _1689_
*1743 _1690_
*1744 _1691_
*1745 _1692_
*1746 _1693_
*1747 _1694_
*1748 _1695_
*1749 _1696_
*1750 _1697_
*1751 _1698_
*1752 _1699_
*1753 _1700_
*1754 _1701_
*1755 _1702_
*1756 _1703_
*1757 _1704_
*1758 _1705_
*1759 _1706_
*1760 _1707_
*1761 _1708_
*1762 _1709_
*1763 _1710_
*1764 _1711_
*1765 _1712_
*1766 _1713_
*1767 _1714_
*1768 _1715_
*1769 _1716_
*1770 _1717_
*1771 _1718_
*1772 _1719_
*1773 _1720_
*1774 _1721_
*1775 _1722_
*1776 _1723_
*1777 _1724_
*1778 _1725_
*1779 _1726_
*1780 _1727_
*1781 _1728_
*1782 _1729_
*1783 _1730_
*1784 _1731_
*1785 _1732_
*1786 _1733_
*1787 _1734_
*1788 _1735_
*1789 _1736_
*1790 _1737_
*1791 _1738_
*1792 _1739_
*1793 _1740_
*1794 _1741_
*1795 _1742_
*1796 _1743_
*1797 _1744_
*1798 _1745_
*1799 _1746_
*1800 _1747_
*1801 _1748_
*1802 _1749_
*1803 _1750_
*1804 _1751_
*1805 _1752_
*1806 _1753_
*1807 _1754_
*1808 _1755_
*1809 _1756_
*1810 _1757_
*1811 _1758_
*1812 _1759_
*1813 _1760_
*1814 _1761_
*1815 _1762_
*1816 _1763_
*1817 _1764_
*1818 _1765_
*1819 _1766_
*1820 _1767_
*1821 _1768_
*1822 _1769_
*1823 _1770_
*1824 _1771_
*1825 _1772_
*1826 _1773_
*1827 _1774_
*1828 _1775_
*1829 _1776_
*1830 _1777_
*1831 _1778_
*1832 _1779_
*1833 _1780_
*1834 _1781_
*1835 _1782_
*1836 _1783_
*1837 _1784_
*1838 _1785_
*1839 _1786_
*1840 _1787_
*1841 _1788_
*1842 _1789_
*1843 _1790_
*1844 _1791_
*1845 _1792_
*1846 _1793_
*1847 _1794_
*1848 _1795_
*1849 _1796_
*1850 _1797_
*1851 _1798_
*1852 _1799_
*1853 _1800_
*1854 _1801_
*1855 _1802_
*1856 _1803_
*1857 _1804_
*1858 _1805_
*1859 _1806_
*1860 _1807_
*1861 _1808_
*1862 _1809_
*1863 _1810_
*1864 _1811_
*1865 _1812_
*1866 _1813_
*1867 _1814_
*1868 _1815_
*1869 _1816_
*1870 _1817_
*1871 _1818_
*1872 _1819_
*1873 _1820_
*1874 _1821_
*1875 _1822_
*1876 _1823_
*1877 _1824_
*1878 _1825_
*1879 _1826_
*1880 _1827_
*1881 _1828_
*1882 _1829_
*1883 _1830_
*1884 _1831_
*1885 _1832_
*1886 _1833_
*1887 _1834_
*1888 _1835_
*1889 _1836_
*1890 _1837_
*1891 _1838_
*1892 _1839_
*1893 _1840_
*1894 _1841_
*1895 _1842_
*1896 _1843_
*1897 _1844_
*1898 _1845_
*1899 _1846_
*1900 _1847_
*1901 _1848_
*1902 _1849_
*1903 _1850_
*1904 _1851_
*1905 _1852_
*1906 _1853_
*1907 _1854_
*1908 _1855_
*1909 _1856_
*1910 _1857_
*1911 _1858_
*1912 _1859_
*1913 _1860_
*1914 _1861_
*1915 _1862_
*1916 _1863_
*1917 _1864_
*1918 _1865_
*1919 _1866_
*1920 _1867_
*1921 _1868_
*1922 _1869_
*1923 _1870_
*1924 _1871_
*1925 _1872_
*1926 _1873_
*1927 _1874_
*1928 _1875_
*1929 _1876_
*1930 _1877_
*1931 _1878_
*1932 _1879_
*1933 _1880_
*1934 _1881_
*1935 _1882_
*1936 _1883_
*1937 _1884_
*1938 _1885_
*1939 _1886_
*1940 _1887_
*1941 _1888_
*1942 _1889_
*1943 _1890_
*1944 _1891_
*1945 _1892_
*1946 _1893_
*1947 _1894_
*1948 _1895_
*1949 _1896_
*1950 _1897_
*1951 _1898_
*1952 _1899_
*1953 _1900_
*1954 _1901_
*1955 _1902_
*1956 _1903_
*1957 _1904_
*1958 _1905_
*1959 _1906_
*1960 _1907_
*1961 _1908_
*1962 _1909_
*1963 _1910_
*1964 _1911_
*1965 _1912_
*1966 _1913_
*1967 _1914_
*1968 _1915_
*1969 _1916_
*1970 _1917_
*1971 _1918_
*1972 _1919_
*1973 _1920_
*1974 _1921_
*1975 _1922_
*1976 _1923_
*1977 _1924_
*1978 _1925_
*1979 _1926_
*1980 _1927_
*1981 _1928_
*1982 _1929_
*1983 _1930_
*1984 _1931_
*1985 _1932_
*1986 _1933_
*1987 _1934_
*1988 _1935_
*1989 _1936_
*1990 _1937_
*1991 _1938_
*1992 _1939_
*1993 _1940_
*1994 _1941_
*1995 _1942_
*1996 _1943_
*1997 _1944_
*1998 _1945_
*1999 _1946_
*2000 _1947_
*2001 _1948_
*2002 _1949_
*2003 _1950_
*2004 _1951_
*2005 _1952_
*2006 _1953_
*2007 _1954_
*2008 _1955_
*2009 _1956_
*2010 _1957_
*2011 _1958_
*2012 _1959_
*2013 _1960_
*2014 _1961_
*2015 _1962_
*2016 _1963_
*2017 _1964_
*2018 _1965_
*2019 _1966_
*2020 _1967_
*2021 _1968_
*2022 _1969_
*2023 _1970_
*2024 _1971_
*2025 _1972_
*2026 _1973_
*2027 _1974_
*2028 _1975_
*2029 _1976_
*2030 _1977_
*2031 _1978_
*2032 _1979_
*2033 _1980_
*2034 _1981_
*2035 _1982_
*2036 _1983_
*2037 _1984_
*2038 _1985_
*2039 _1986_
*2040 _1987_
*2041 _1988_
*2042 _1989_
*2043 _1990_
*2044 _1991_
*2045 _1992_
*2046 _1993_
*2047 _1994_
*2048 _1995_
*2049 _1996_
*2050 _1997_
*2051 _1998_
*2052 _1999_
*2053 _2000_
*2054 _2001_
*2055 _2002_
*2056 _2003_
*2057 _2004_
*2058 _2005_
*2059 _2006_
*2060 _2007_
*2061 _2008_
*2062 _2009_
*2063 _2010_
*2064 _2011_
*2065 _2012_
*2066 _2013_
*2067 _2014_
*2068 _2015_
*2069 _2016_
*2070 _2017_
*2071 _2018_
*2072 _2019_
*2073 _2020_
*2074 _2021_
*2075 _2022_
*2076 _2023_
*2077 _2024_
*2078 _2025_
*2079 _2026_
*2080 _2027_
*2081 _2028_
*2082 _2029_
*2083 _2030_
*2084 _2031_
*2085 _2032_
*2086 _2033_
*2087 _2034_
*2088 _2035_
*2089 _2036_
*2090 _2037_
*2091 _2038_
*2092 _2039_
*2093 _2040_
*2094 _2041_
*2095 _2042_
*2096 _2043_
*2097 _2044_
*2098 _2045_
*2099 _2046_
*2100 _2047_
*2101 _2048_
*2102 _2049_
*2103 clk_regs
*2104 clknet_0_clk
*2105 clknet_0_clk_regs
*2106 clknet_1_0__leaf_clk
*2107 clknet_3_0__leaf_clk_regs
*2108 clknet_3_1__leaf_clk_regs
*2109 clknet_3_2__leaf_clk_regs
*2110 clknet_3_3__leaf_clk_regs
*2111 clknet_3_4__leaf_clk_regs
*2112 clknet_3_5__leaf_clk_regs
*2113 clknet_3_6__leaf_clk_regs
*2114 clknet_3_7__leaf_clk_regs
*2115 clknet_leaf_0_clk_regs
*2116 clknet_leaf_10_clk_regs
*2117 clknet_leaf_11_clk_regs
*2118 clknet_leaf_12_clk_regs
*2119 clknet_leaf_13_clk_regs
*2120 clknet_leaf_14_clk_regs
*2121 clknet_leaf_15_clk_regs
*2122 clknet_leaf_16_clk_regs
*2123 clknet_leaf_17_clk_regs
*2124 clknet_leaf_18_clk_regs
*2125 clknet_leaf_19_clk_regs
*2126 clknet_leaf_1_clk_regs
*2127 clknet_leaf_20_clk_regs
*2128 clknet_leaf_21_clk_regs
*2129 clknet_leaf_22_clk_regs
*2130 clknet_leaf_23_clk_regs
*2131 clknet_leaf_24_clk_regs
*2132 clknet_leaf_25_clk_regs
*2133 clknet_leaf_26_clk_regs
*2134 clknet_leaf_27_clk_regs
*2135 clknet_leaf_28_clk_regs
*2136 clknet_leaf_29_clk_regs
*2137 clknet_leaf_2_clk_regs
*2138 clknet_leaf_30_clk_regs
*2139 clknet_leaf_31_clk_regs
*2140 clknet_leaf_32_clk_regs
*2141 clknet_leaf_33_clk_regs
*2142 clknet_leaf_34_clk_regs
*2143 clknet_leaf_35_clk_regs
*2144 clknet_leaf_36_clk_regs
*2145 clknet_leaf_37_clk_regs
*2146 clknet_leaf_38_clk_regs
*2147 clknet_leaf_39_clk_regs
*2148 clknet_leaf_3_clk_regs
*2149 clknet_leaf_40_clk_regs
*2150 clknet_leaf_41_clk_regs
*2151 clknet_leaf_42_clk_regs
*2152 clknet_leaf_43_clk_regs
*2153 clknet_leaf_44_clk_regs
*2154 clknet_leaf_45_clk_regs
*2155 clknet_leaf_46_clk_regs
*2156 clknet_leaf_47_clk_regs
*2157 clknet_leaf_48_clk_regs
*2158 clknet_leaf_49_clk_regs
*2159 clknet_leaf_4_clk_regs
*2160 clknet_leaf_50_clk_regs
*2161 clknet_leaf_51_clk_regs
*2162 clknet_leaf_52_clk_regs
*2163 clknet_leaf_53_clk_regs
*2164 clknet_leaf_5_clk_regs
*2165 clknet_leaf_6_clk_regs
*2166 clknet_leaf_7_clk_regs
*2167 clknet_leaf_8_clk_regs
*2168 clknet_leaf_9_clk_regs
*2169 delaynet_0_clk
*2170 net1
*2171 net10
*2172 net100
*2173 net1000
*2174 net1001
*2175 net1002
*2176 net1003
*2177 net1004
*2178 net1005
*2179 net1006
*2180 net1007
*2181 net1008
*2182 net1009
*2183 net101
*2184 net1010
*2185 net1011
*2186 net1012
*2187 net1013
*2188 net1014
*2189 net1015
*2190 net1016
*2191 net1017
*2192 net1018
*2193 net1019
*2194 net102
*2195 net1020
*2196 net1021
*2197 net1022
*2198 net1023
*2199 net1024
*2200 net1025
*2201 net1026
*2202 net1027
*2203 net1028
*2204 net1029
*2205 net103
*2206 net1030
*2207 net1031
*2208 net1032
*2209 net1033
*2210 net1034
*2211 net1035
*2212 net1036
*2213 net1037
*2214 net1038
*2215 net1039
*2216 net104
*2217 net1040
*2218 net1041
*2219 net1042
*2220 net1043
*2221 net1044
*2222 net1045
*2223 net1046
*2224 net1047
*2225 net1048
*2226 net1049
*2227 net105
*2228 net1050
*2229 net1051
*2230 net1052
*2231 net1053
*2232 net1054
*2233 net106
*2234 net107
*2235 net108
*2236 net109
*2237 net11
*2238 net110
*2239 net111
*2240 net112
*2241 net113
*2242 net114
*2243 net115
*2244 net116
*2245 net117
*2246 net118
*2247 net119
*2248 net12
*2249 net120
*2250 net121
*2251 net122
*2252 net123
*2253 net124
*2254 net125
*2255 net126
*2256 net127
*2257 net128
*2258 net129
*2259 net13
*2260 net130
*2261 net131
*2262 net132
*2263 net133
*2264 net134
*2265 net135
*2266 net136
*2267 net137
*2268 net138
*2269 net139
*2270 net14
*2271 net140