*SPEF "ieee 1481-1999"
*DESIGN "heichips25_usb_cdc"
*DATE "16:26:55 Friday August 08, 2025"
*VENDOR "The OpenROAD Project"
*PROGRAM "OpenROAD"
*VERSION "341650e72dad0dc8571822ff8c5d9c5e365327f7"
*DESIGN_FLOW "NAME_SCOPE LOCAL" "PIN_CAP NONE"
*DIVIDER /
*DELIMITER :
*BUS_DELIMITER []
*T_UNIT 1 NS
*C_UNIT 1 PF
*R_UNIT 1 OHM
*L_UNIT 1 HENRY

*NAME_MAP
*3 clk
*4 ena
*5 rst_n
*6 ui_in[0]
*7 ui_in[1]
*8 ui_in[2]
*9 ui_in[3]
*10 ui_in[4]
*11 ui_in[5]
*12 ui_in[6]
*13 ui_in[7]
*14 uio_in[0]
*15 uio_in[1]
*16 uio_in[2]
*17 uio_in[3]
*18 uio_in[4]
*19 uio_in[5]
*20 uio_in[6]
*21 uio_in[7]
*22 uio_oe[0]
*23 uio_oe[1]
*24 uio_oe[2]
*25 uio_oe[3]
*26 uio_oe[4]
*27 uio_oe[5]
*28 uio_oe[6]
*29 uio_oe[7]
*30 uio_out[0]
*31 uio_out[1]
*32 uio_out[2]
*33 uio_out[3]
*34 uio_out[4]
*35 uio_out[5]
*36 uio_out[6]
*37 net41
*38 uo_out[0]
*39 uo_out[1]
*40 uo_out[2]
*41 uo_out[3]
*42 uo_out[4]
*43 uo_out[5]
*44 uo_out[6]
*45 uo_out[7]
*46 usb_dn_en_o
*47 usb_dn_rx_i
*48 usb_dn_tx_o
*49 usb_dp_en_o
*50 usb_dp_rx_i
*51 usb_dp_tx_o
*52 _0000_
*53 _0001_
*54 _0002_
*55 _0003_
*56 _0004_
*57 _0005_
*58 _0006_
*59 _0007_
*60 _0008_
*61 _0009_
*62 _0010_
*63 _0011_
*64 _0012_
*65 _0013_
*66 _0014_
*67 _0015_
*68 _0016_
*69 _0017_
*70 _0018_
*71 _0019_
*72 _0020_
*73 _0021_
*74 _0022_
*75 _0023_
*76 _0024_
*77 _0025_
*78 _0026_
*79 _0027_
*80 _0028_
*81 _0029_
*82 _0030_
*83 _0031_
*84 _0032_
*85 _0033_
*86 _0034_
*87 _0035_
*88 _0036_
*89 _0037_
*90 _0038_
*91 _0039_
*92 _0040_
*93 _0041_
*94 _0042_
*95 _0043_
*96 _0044_
*97 _0045_
*98 _0046_
*99 _0047_
*100 _0048_
*101 _0049_
*102 _0050_
*103 _0051_
*104 _0052_
*105 _0053_
*106 _0054_
*107 _0055_
*108 _0056_
*109 _0057_
*110 _0058_
*111 _0059_
*112 _0060_
*113 _0061_
*114 _0062_
*115 _0063_
*116 _0064_
*117 _0065_
*118 _0066_
*119 _0067_
*120 _0068_
*121 _0069_
*122 _0070_
*123 _0071_
*124 _0072_
*125 _0073_
*126 _0074_
*127 _0075_
*128 _0076_
*129 _0077_
*130 _0078_
*131 _0079_
*132 _0080_
*133 _0081_
*134 _0082_
*135 _0083_
*136 _0084_
*137 _0085_
*138 _0086_
*139 _0087_
*140 _0088_
*141 _0089_
*142 _0090_
*143 _0091_
*144 _0092_
*145 _0093_
*146 _0094_
*147 _0095_
*148 _0096_
*149 _0097_
*150 _0098_
*151 _0099_
*152 _0100_
*153 _0101_
*154 _0102_
*155 _0103_
*156 _0104_
*157 _0105_
*158 _0106_
*159 _0107_
*160 _0108_
*161 _0109_
*162 _0110_
*163 _0111_
*164 _0112_
*165 _0113_
*166 _0114_
*167 _0115_
*168 _0116_
*169 _0117_
*170 _0118_
*171 _0119_
*172 _0120_
*173 _0121_
*174 _0122_
*175 _0123_
*176 _0124_
*177 _0125_
*178 _0126_
*179 _0127_
*180 _0128_
*181 _0129_
*182 _0130_
*183 _0131_
*184 _0132_
*185 _0133_
*186 _0134_
*187 _0135_
*188 _0136_
*189 _0137_
*190 _0138_
*191 _0139_
*192 _0140_
*193 _0141_
*194 _0142_
*195 _0143_
*196 _0144_
*197 _0145_
*198 _0146_
*199 _0147_
*200 _0148_
*201 _0149_
*202 _0150_
*203 _0151_
*204 _0152_
*205 _0153_
*206 _0154_
*207 _0155_
*208 _0156_
*209 _0157_
*210 _0158_
*211 _0159_
*212 _0160_
*213 _0161_
*214 _0162_
*215 _0163_
*216 _0164_
*217 _0165_
*218 _0166_
*219 _0167_
*220 _0168_
*221 _0169_
*222 _0170_
*223 _0171_
*224 _0172_
*225 _0173_
*226 _0174_
*227 _0175_
*228 _0176_
*229 _0177_
*230 _0178_
*231 _0179_
*232 _0180_
*233 _0181_
*234 _0182_
*235 _0183_
*236 _0184_
*237 _0185_
*238 _0186_
*239 _0187_
*240 _0188_
*241 _0189_
*242 _0190_
*243 _0191_
*244 _0192_
*245 _0193_
*246 _0194_
*247 _0195_
*248 _0196_
*249 _0197_
*250 _0198_
*251 _0199_
*252 _0200_
*253 _0201_
*254 _0202_
*255 _0203_
*256 _0204_
*257 _0205_
*258 _0206_
*259 _0207_
*260 _0208_
*261 _0209_
*262 _0210_
*263 _0211_
*264 _0212_
*265 _0213_
*266 _0214_
*267 _0215_
*268 _0216_
*269 _0217_
*270 _0218_
*271 _0219_
*272 _0220_
*273 _0221_
*274 _0222_
*275 _0223_
*276 _0224_
*277 _0225_
*278 _0226_
*279 _0227_
*280 _0228_
*281 _0229_
*282 _0230_
*283 _0231_
*284 _0232_
*285 _0233_
*286 _0234_
*287 _0235_
*288 _0236_
*289 _0237_
*290 _0238_
*291 _0239_
*292 _0240_
*293 _0241_
*294 _0242_
*295 _0243_
*296 _0244_
*297 _0245_
*298 _0246_
*299 _0247_
*300 _0248_
*301 _0249_
*302 _0250_
*303 _0251_
*304 _0252_
*305 _0253_
*306 _0254_
*307 _0255_
*308 _0256_
*309 _0257_
*310 _0258_
*311 _0259_
*312 _0260_
*313 _0261_
*314 _0262_
*315 _0263_
*316 _0264_
*317 _0265_
*318 _0266_
*319 _0267_
*320 _0268_
*321 _0269_
*322 _0270_
*323 _0271_
*324 _0272_
*325 _0273_
*326 _0274_
*327 _0275_
*328 _0276_
*329 _0277_
*330 _0278_
*331 _0279_
*332 _0280_
*333 _0281_
*334 _0282_
*335 _0283_
*336 _0284_
*337 _0285_
*338 _0286_
*339 _0287_
*340 _0288_
*341 _0289_
*342 _0290_
*343 _0291_
*344 _0292_
*345 _0293_
*346 _0294_
*347 _0295_
*348 _0296_
*349 _0297_
*350 _0298_
*351 _0299_
*352 _0300_
*353 _0301_
*354 _0302_
*355 _0303_
*356 _0304_
*357 _0305_
*358 _0306_
*359 _0307_
*360 _0308_
*361 _0309_
*362 _0310_
*363 _0311_
*364 _0312_
*365 _0313_
*366 _0314_
*367 _0315_
*368 _0316_
*369 _0317_
*370 _0318_
*371 _0319_
*372 _0320_
*373 _0321_
*374 _0322_
*375 _0323_
*376 _0324_
*377 _0325_
*378 _0326_
*379 _0327_
*380 _0328_
*381 _0329_
*382 _0330_
*383 _0331_
*384 _0332_
*385 _0333_
*386 _0334_
*387 _0335_
*388 _0336_
*389 _0337_
*390 _0338_
*391 _0339_
*392 _0340_
*393 _0341_
*394 _0342_
*395 _0343_
*396 _0344_
*397 _0345_
*398 _0346_
*399 _0347_
*400 _0348_
*401 _0349_
*402 _0350_
*403 _0351_
*404 _0352_
*405 _0353_
*406 _0354_
*407 _0355_
*408 _0356_
*409 _0357_
*410 _0358_
*411 _0359_
*412 _0360_
*413 _0361_
*414 _0362_
*415 _0363_
*416 _0364_
*417 _0365_
*418 _0366_
*419 _0367_
*420 _0368_
*421 _0369_
*422 _0370_
*423 _0371_
*424 _0372_
*425 _0373_
*426 _0374_
*427 _0375_
*428 _0376_
*429 _0377_
*430 _0378_
*431 _0379_
*432 _0380_
*433 _0381_
*434 _0382_
*435 _0383_
*436 _0384_
*437 _0385_
*438 _0386_
*439 _0387_
*440 _0388_
*441 _0389_
*442 _0390_
*443 _0391_
*444 _0392_
*445 _0393_
*446 _0394_
*447 _0395_
*448 _0396_
*449 _0397_
*450 _0398_
*451 _0399_
*452 _0400_
*453 _0401_
*454 _0402_
*455 _0403_
*456 _0404_
*457 _0405_
*458 _0406_
*459 _0407_
*460 _0408_
*461 _0409_
*462 _0410_
*463 _0411_
*464 _0412_
*465 _0413_
*466 _0414_
*467 _0415_
*468 _0416_
*469 _0417_
*470 _0418_
*471 _0419_
*472 _0420_
*473 _0421_
*474 _0422_
*475 _0423_
*476 _0424_
*477 _0425_
*478 _0426_
*479 _0427_
*480 _0428_
*481 _0429_
*482 _0430_
*483 _0431_
*484 _0432_
*485 _0433_
*486 _0434_
*487 _0435_
*488 _0436_
*489 _0437_
*490 _0438_
*491 _0439_
*492 _0440_
*493 _0441_
*494 _0442_
*495 _0443_
*496 _0444_
*497 _0445_
*498 _0446_
*499 _0447_
*500 _0448_
*501 _0449_
*502 _0450_
*503 _0451_
*504 _0452_
*505 _0453_
*506 _0454_
*507 _0455_
*508 _0456_
*509 _0457_
*510 _0458_
*511 _0459_
*512 _0460_
*513 _0461_
*514 _0462_
*515 _0463_
*516 _0464_
*517 _0465_
*518 _0466_
*519 _0467_
*520 _0468_
*521 _0469_
*522 _0470_
*523 _0471_
*524 _0472_
*525 _0473_
*526 _0474_
*527 _0475_
*528 _0476_
*529 _0477_
*530 _0478_
*531 _0479_
*532 _0480_
*533 _0481_
*534 _0482_
*535 _0483_
*536 _0484_
*537 _0485_
*538 _0486_
*539 _0487_
*540 _0488_
*541 _0489_
*542 _0490_
*543 _0491_
*544 _0492_
*545 _0493_
*546 _0494_
*547 _0495_
*548 _0496_
*549 _0497_
*550 _0498_
*551 _0499_
*552 _0500_
*553 _0501_
*554 _0502_
*555 _0503_
*556 _0504_
*557 _0505_
*558 _0506_
*559 _0507_
*560 _0508_
*561 _0509_
*562 _0510_
*563 _0511_
*564 _0512_
*565 _0513_
*566 _0514_
*567 _0515_
*568 _0516_
*569 _0517_
*570 _0518_
*571 _0519_
*572 _0520_
*573 _0521_
*574 _0522_
*575 _0523_
*576 _0524_
*577 _0525_
*578 _0526_
*579 _0527_
*580 _0528_
*581 _0529_
*582 _0530_
*583 _0531_
*584 _0532_
*585 _0533_
*586 _0534_
*587 _0535_
*588 _0536_
*589 _0537_
*590 _0538_
*591 _0539_
*592 _0540_
*593 _0541_
*594 _0542_
*595 _0543_
*596 _0544_
*597 _0545_
*598 _0546_
*599 _0547_
*600 _0548_
*601 _0549_
*602 _0550_
*603 _0551_
*604 _0552_
*605 _0553_
*606 _0554_
*607 _0555_
*608 _0556_
*609 _0557_
*610 _0558_
*611 _0559_
*612 _0560_
*613 _0561_
*614 _0562_
*615 _0563_
*616 _0564_
*617 _0565_
*618 _0566_
*619 _0567_
*620 _0568_
*621 _0569_
*622 _0570_
*623 _0571_
*624 _0572_
*625 _0573_
*626 _0574_
*627 _0575_
*628 _0576_
*629 _0577_
*630 _0578_
*631 _0579_
*632 _0580_
*633 _0581_
*634 _0582_
*635 _0583_
*636 _0584_
*637 _0585_
*638 _0586_
*639 _0587_
*640 _0588_
*641 _0589_
*642 _0590_
*643 _0591_
*644 _0592_
*645 _0593_
*646 _0594_
*647 _0595_
*648 _0596_
*649 _0597_
*650 _0598_
*651 _0599_
*652 _0600_
*653 _0601_
*654 _0602_
*655 _0603_
*656 _0604_
*657 _0605_
*658 _0606_
*659 _0607_
*660 _0608_
*661 _0609_
*662 _0610_
*663 _0611_
*664 _0612_
*665 _0613_
*666 _0614_
*667 _0615_
*668 _0616_
*669 _0617_
*670 _0618_
*671 _0619_
*672 _0620_
*673 _0621_
*674 _0622_
*675 _0623_
*676 _0624_
*677 _0625_
*678 _0626_
*679 _0627_
*680 _0628_
*681 _0629_
*682 _0630_
*683 _0631_
*684 _0632_
*685 _0633_
*686 _0634_
*687 _0635_
*688 _0636_
*689 _0637_
*690 _0638_
*691 _0639_
*692 _0640_
*693 _0641_
*694 _0642_
*695 _0643_
*696 _0644_
*697 _0645_
*698 _0646_
*699 _0647_
*700 _0648_
*701 _0649_
*702 _0650_
*703 _0651_
*704 _0652_
*705 _0653_
*706 _0654_
*707 _0655_
*708 _0656_
*709 _0657_
*710 _0658_
*711 _0659_
*712 _0660_
*713 _0661_
*714 _0662_
*715 _0663_
*716 _0664_
*717 _0665_
*718 _0666_
*719 _0667_
*720 _0668_
*721 _0669_
*722 _0670_
*723 _0671_
*724 _0672_
*725 _0673_
*726 _0674_
*727 _0675_
*728 _0676_
*729 _0677_
*730 _0678_
*731 _0679_
*732 _0680_
*733 _0681_
*734 _0682_
*735 _0683_
*736 _0684_
*737 _0685_
*738 _0686_
*739 _0687_
*740 _0688_
*741 _0689_
*742 _0690_
*743 _0691_
*744 _0692_
*745 _0693_
*746 _0694_
*747 _0695_
*748 _0696_
*749 _0697_
*750 _0698_
*751 _0699_
*752 _0700_
*753 _0701_
*754 _0702_
*755 _0703_
*756 _0704_
*757 _0705_
*758 _0706_
*759 _0707_
*760 _0708_
*761 _0709_
*762 _0710_
*763 _0711_
*764 _0712_
*765 _0713_
*766 _0714_
*767 _0715_
*768 _0716_
*769 _0717_
*770 _0718_
*771 _0719_
*772 _0720_
*773 _0721_
*774 _0722_
*775 _0723_
*776 _0724_
*777 _0725_
*778 _0726_
*779 _0727_
*780 _0728_
*781 _0729_
*782 _0730_
*783 _0731_
*784 _0732_
*785 _0733_
*786 _0734_
*787 _0735_
*788 _0736_
*789 _0737_
*790 _0738_
*791 _0739_
*792 _0740_
*793 _0741_
*794 _0742_
*795 _0743_
*796 _0744_
*797 _0745_
*798 _0746_
*799 _0747_
*800 _0748_
*801 _0749_
*802 _0750_
*803 _0751_
*804 _0752_
*805 _0753_
*806 _0754_
*807 _0755_
*808 _0756_
*809 _0757_
*810 _0758_
*811 _0759_
*812 _0760_
*813 _0761_
*814 _0762_
*815 _0763_
*816 _0764_
*817 _0765_
*818 _0766_
*819 _0767_
*820 _0768_
*821 _0769_
*822 _0770_
*823 _0771_
*824 _0772_
*825 _0773_
*826 _0774_
*827 _0775_
*828 _0776_
*829 _0777_
*830 _0778_
*831 _0779_
*832 _0780_
*833 _0781_
*834 _0782_
*835 _0783_
*836 _0784_
*837 _0785_
*838 _0786_
*839 _0787_
*840 _0788_
*841 _0789_
*842 _0790_
*843 _0791_
*844 _0792_
*845 _0793_
*846 _0794_
*847 _0795_
*848 _0796_
*849 _0797_
*850 _0798_
*851 _0799_
*852 _0800_
*853 _0801_
*854 _0802_
*855 _0803_
*856 _0804_
*857 _0805_
*858 _0806_
*859 _0807_
*860 _0808_
*861 _0809_
*862 _0810_
*863 _0811_
*864 _0812_
*865 _0813_
*866 _0814_
*867 _0815_
*868 _0816_
*869 _0817_
*870 _0818_
*871 _0819_
*872 _0820_
*873 _0821_
*874 _0822_
*875 _0823_
*876 _0824_
*877 _0825_
*878 _0826_
*879 _0827_
*880 _0828_
*881 _0829_
*882 _0830_
*883 _0831_
*884 _0832_
*885 _0833_
*886 _0834_
*887 _0835_
*888 _0836_
*889 _0837_
*890 _0838_
*891 _0839_
*892 _0840_
*893 _0841_
*894 _0842_
*895 _0843_
*896 _0844_
*897 _0845_
*898 _0846_
*899 _0847_
*900 _0848_
*901 _0849_
*902 _0850_
*903 _0851_
*904 _0852_
*905 _0853_
*906 _0854_
*907 _0855_
*908 _0856_
*909 _0857_
*910 _0858_
*911 _0859_
*912 _0860_
*913 _0861_
*914 _0862_
*915 _0863_
*916 _0864_
*917 _0865_
*918 _0866_
*919 _0867_
*920 _0868_
*921 _0869_
*922 _0870_
*923 _0871_
*924 _0872_
*925 _0873_
*926 _0874_
*927 _0875_
*928 _0876_
*929 _0877_
*930 _0878_
*931 _0879_
*932 _0880_
*933 _0881_
*934 _0882_
*935 _0883_
*936 _0884_
*937 _0885_
*938 _0886_
*939 _0887_
*940 _0888_
*941 _0889_
*942 _0890_
*943 _0891_
*944 _0892_
*945 _0893_
*946 _0894_
*947 _0895_
*948 _0896_
*949 _0897_
*950 _0898_
*951 _0899_
*952 _0900_
*953 _0901_
*954 _0902_
*955 _0903_
*956 _0904_
*957 _0905_
*958 _0906_
*959 _0907_
*960 _0908_
*961 _0909_
*962 _0910_
*963 _0911_
*964 _0912_
*965 _0913_
*966 _0914_
*967 _0915_
*968 _0916_
*969 _0917_
*970 _0918_
*971 _0919_
*972 _0920_
*973 _0921_
*974 _0922_
*975 _0923_
*976 _0924_
*977 _0925_
*978 _0926_
*979 _0927_
*980 _0928_
*981 _0929_
*982 _0930_
*983 _0931_
*984 _0932_
*985 _0933_
*986 _0934_
*987 _0935_
*988 _0936_
*989 _0937_
*990 _0938_
*991 _0939_
*992 _0940_
*993 _0941_
*994 _0942_
*995 _0943_
*996 _0944_
*997 _0945_
*998 _0946_
*999 _0947_
*1000 _0948_
*1001 _0949_
*1002 _0950_
*1003 _0951_
*1004 _0952_
*1005 _0953_
*1006 _0954_
*1007 _0955_
*1008 _0956_
*1009 _0957_
*1010 _0958_
*1011 _0959_
*1012 _0960_
*1013 _0961_
*1014 _0962_
*1015 _0963_
*1016 _0964_
*1017 _0965_
*1018 _0966_
*1019 _0967_
*1020 _0968_
*1021 _0969_
*1022 _0970_
*1023 _0971_
*1024 _0972_
*1025 _0973_
*1026 _0974_
*1027 _0975_
*1028 _0976_
*1029 _0977_
*1030 _0978_
*1031 _0979_
*1032 _0980_
*1033 _0981_
*1034 _0982_
*1035 _0983_
*1036 _0984_
*1037 _0985_
*1038 _0986_
*1039 _0987_
*1040 _0988_
*1041 _0989_
*1042 _0990_
*1043 _0991_
*1044 _0992_
*1045 _0993_
*1046 _0994_
*1047 _0995_
*1048 _0996_
*1049 _0997_
*1050 _0998_
*1051 _0999_
*1052 _1000_
*1053 _1001_
*1054 _1002_
*1055 _1003_
*1056 _1004_
*1057 _1005_
*1058 _1006_
*1059 _1007_
*1060 _1008_
*1061 _1009_
*1062 _1010_
*1063 _1011_
*1064 _1012_
*1065 _1013_
*1066 _1014_
*1067 _1015_
*1068 _1016_
*1069 _1017_
*1070 _1018_
*1071 _1019_
*1072 _1020_
*1073 _1021_
*1074 _1022_
*1075 _1023_
*1076 _1024_
*1077 _1025_
*1078 _1026_
*1079 _1027_
*1080 _1028_
*1081 _1029_
*1082 _1030_
*1083 _1031_
*1084 _1032_
*1085 _1033_
*1086 _1034_
*1087 _1035_
*1088 _1036_
*1089 _1037_
*1090 _1038_
*1091 _1039_
*1092 _1040_
*1093 _1041_
*1094 _1042_
*1095 _1043_
*1096 _1044_
*1097 _1045_
*1098 _1046_
*1099 _1047_
*1100 _1048_
*1101 _1049_
*1102 _1050_
*1103 _1051_
*1104 _1052_
*1105 _1053_
*1106 _1054_
*1107 _1055_
*1108 _1056_
*1109 _1057_
*1110 _1058_
*1111 _1059_
*1112 _1060_
*1113 _1061_
*1114 _1062_
*1115 _1063_
*1116 _1064_
*1117 _1065_
*1118 _1066_
*1119 _1067_
*1120 _1068_
*1121 _1069_
*1122 _1070_
*1123 _1071_
*1124 _1072_
*1125 _1073_
*1126 _1074_
*1127 _1075_
*1128 _1076_
*1129 _1077_
*1130 _1078_
*1131 _1079_
*1132 _1080_
*1133 _1081_
*1134 _1082_
*1135 _1083_
*1136 _1084_
*1137 _1085_
*1138 _1086_
*1139 _1087_
*1140 _1088_
*1141 _1089_
*1142 _1090_
*1143 _1091_
*1144 _1092_
*1145 _1093_
*1146 _1094_
*1147 _1095_
*1148 _1096_
*1149 _1097_
*1150 _1098_
*1151 _1099_
*1152 _1100_
*1153 _1101_
*1154 _1102_
*1155 _1103_
*1156 _1104_
*1157 _1105_
*1158 _1106_
*1159 _1107_
*1160 _1108_
*1161 _1109_
*1162 _1110_
*1163 _1111_
*1164 _1112_
*1165 _1113_
*1166 _1114_
*1167 _1115_
*1168 _1116_
*1169 _1117_
*1170 _1118_
*1171 _1119_
*1172 _1120_
*1173 _1121_
*1174 _1122_
*1175 _1123_
*1176 _1124_
*1177 _1125_
*1178 _1126_
*1179 _1127_
*1180 _1128_
*1181 _1129_
*1182 _1130_
*1183 _1131_
*1184 _1132_
*1185 _1133_
*1186 _1134_
*1187 _1135_
*1188 _1136_
*1189 _1137_
*1190 _1138_
*1191 _1139_
*1192 _1140_
*1193 _1141_
*1194 _1142_
*1195 _1143_
*1196 _1144_
*1197 _1145_
*1198 _1146_
*1199 _1147_
*1200 _1148_
*1201 _1149_
*1202 _1150_
*1203 _1151_
*1204 _1152_
*1205 _1153_
*1206 _1154_
*1207 _1155_
*1208 _1156_
*1209 _1157_
*1210 _1158_
*1211 _1159_
*1212 _1160_
*1213 _1161_
*1214 _1162_
*1215 _1163_
*1216 _1164_
*1217 _1165_
*1218 _1166_
*1219 _1167_
*1220 _1168_
*1221 _1169_
*1222 _1170_
*1223 _1171_
*1224 _1172_
*1225 _1173_
*1226 _1174_
*1227 _1175_
*1228 _1176_
*1229 _1177_
*1230 _1178_
*1231 _1179_
*1232 _1180_
*1233 _1181_
*1234 _1182_
*1235 _1183_
*1236 _1184_
*1237 _1185_
*1238 _1186_
*1239 _1187_
*1240 _1188_
*1241 _1189_
*1242 _1190_
*1243 _1191_
*1244 _1192_
*1245 _1193_
*1246 _1194_
*1247 _1195_
*1248 _1196_
*1249 _1197_
*1250 _1198_
*1251 _1199_
*1252 _1200_
*1253 _1201_
*1254 _1202_
*1255 _1203_
*1256 _1204_
*1257 _1205_
*1258 _1206_
*1259 _1207_
*1260 _1208_
*1261 _1209_
*1262 _1210_
*1263 _1211_
*1264 _1212_
*1265 _1213_
*1266 _1214_
*1267 _1215_
*1268 _1216_
*1269 _1217_
*1270 _1218_
*1271 _1219_
*1272 _1220_
*1273 _1221_
*1274 _1222_
*1275 _1223_
*1276 _1224_
*1277 _1225_
*1278 _1226_
*1279 _1227_
*1280 _1228_
*1281 _1229_
*1282 _1230_
*1283 _1231_
*1284 _1232_
*1285 _1233_
*1286 _1234_
*1287 _1235_
*1288 _1236_
*1289 _1237_
*1290 _1238_
*1291 _1239_
*1292 _1240_
*1293 _1241_
*1294 _1242_
*1295 _1243_
*1296 _1244_
*1297 _1245_
*1298 _1246_
*1299 _1247_
*1300 _1248_
*1301 _1249_
*1302 _1250_
*1303 _1251_
*1304 _1252_
*1305 _1253_
*1306 _1254_
*1307 _1255_
*1308 _1256_
*1309 _1257_
*1310 _1258_
*1311 _1259_
*1312 _1260_
*1313 _1261_
*1314 _1262_
*1315 _1263_
*1316 _1264_
*1317 _1265_
*1318 _1266_
*1319 _1267_
*1320 _1268_
*1321 _1269_
*1322 _1270_
*1323 _1271_
*1324 _1272_
*1325 _1273_
*1326 _1274_
*1327 _1275_
*1328 _1276_
*1329 _1277_
*1330 _1278_
*1331 _1279_
*1332 _1280_
*1333 _1281_
*1334 _1282_
*1335 _1283_
*1336 _1284_
*1337 _1285_
*1338 _1286_
*1339 _1287_
*1340 _1288_
*1341 _1289_
*1342 _1290_
*1343 _1291_
*1344 _1292_
*1345 _1293_
*1346 _1294_
*1347 _1295_
*1348 _1296_
*1349 _1297_
*1350 _1298_
*1351 _1299_
*1352 _1300_
*1353 _1301_
*1354 _1302_
*1355 _1303_
*1356 _1304_
*1357 _1305_
*1358 _1306_
*1359 _1307_
*1360 _1308_
*1361 _1309_
*1362 _1310_
*1363 _1311_
*1364 _1312_
*1365 _1313_
*1366 _1314_
*1367 _1315_
*1368 _1316_
*1369 _1317_
*1370 _1318_
*1371 _1319_
*1372 _1320_
*1373 _1321_
*1374 _1322_
*1375 _1323_
*1376 _1324_
*1377 _1325_
*1378 _1326_
*1379 _1327_
*1380 _1328_
*1381 _1329_
*1382 _1330_
*1383 _1331_
*1384 _1332_
*1385 _1333_
*1386 _1334_
*1387 _1335_
*1388 _1336_
*1389 _1337_
*1390 _1338_
*1391 _1339_
*1392 _1340_
*1393 _1341_
*1394 _1342_
*1395 _1343_
*1396 _1344_
*1397 _1345_
*1398 _1346_
*1399 _1347_
*1400 _1348_
*1401 _1349_
*1402 _1350_
*1403 _1351_
*1404 _1352_
*1405 _1353_
*1406 _1354_
*1407 _1355_
*1408 _1356_
*1409 _1357_
*1410 _1358_
*1411 _1359_
*1412 _1360_
*1413 _1361_
*1414 _1362_
*1415 _1363_
*1416 _1364_
*1417 _1365_
*1418 _1366_
*1419 _1367_
*1420 _1368_
*1421 _1369_
*1422 _1370_
*1423 _1371_
*1424 _1372_
*1425 _1373_
*1426 _1374_
*1427 _1375_
*1428 _1376_
*1429 _1377_
*1430 _1378_
*1431 _1379_
*1432 _1380_
*1433 _1381_
*1434 _1382_
*1435 _1383_
*1436 _1384_
*1437 _1385_
*1438 _1386_
*1439 _1387_
*1440 _1388_
*1441 _1389_
*1442 _1390_
*1443 _1391_
*1444 _1392_
*1445 _1393_
*1446 _1394_
*1447 _1395_
*1448 _1396_
*1449 _1397_
*1450 _1398_
*1451 _1399_
*1452 _1400_
*1453 _1401_
*1454 _1402_
*1455 _1403_
*1456 _1404_
*1457 _1405_
*1458 _1406_
*1459 _1407_
*1460 _1408_
*1461 _1409_
*1462 _1410_
*1463 _1411_
*1464 _1412_
*1465 _1413_
*1466 _1414_
*1467 _1415_
*1468 _1416_
*1469 _1417_
*1470 _1418_
*1471 _1419_
*1472 _1420_
*1473 _1421_
*1474 _1422_
*1475 _1423_
*1476 _1424_
*1477 _1425_
*1478 _1426_
*1479 _1427_
*1480 _1428_
*1481 _1429_
*1482 _1430_
*1483 _1431_
*1484 _1432_
*1485 _1433_
*1486 _1434_
*1487 _1435_
*1488 _1436_
*1489 _1437_
*1490 _1438_
*1491 _1439_
*1492 _1440_
*1493 _1441_
*1494 _1442_
*1495 _1443_
*1496 _1444_
*1497 _1445_
*1498 _1446_
*1499 _1447_
*1500 _1448_
*1501 _1449_
*1502 _1450_
*1503 _1451_
*1504 _1452_
*1505 _1453_
*1506 _1454_
*1507 _1455_
*1508 _1456_
*1509 _1457_
*1510 _1458_
*1511 _1459_
*1512 _1460_
*1513 _1461_
*1514 _1462_
*1515 _1463_
*1516 _1464_
*1517 _1465_
*1518 _1466_
*1519 _1467_
*1520 _1468_
*1521 _1469_
*1522 _1470_
*1523 _1471_
*1524 _1472_
*1525 _1473_
*1526 _1474_
*1527 _1475_
*1528 _1476_
*1529 _1477_
*1530 _1478_
*1531 _1479_
*1532 _1480_
*1533 _1481_
*1534 _1482_
*1535 _1483_
*1536 _1484_
*1537 _1485_
*1538 _1486_
*1539 _1487_
*1540 _1488_
*1541 _1489_
*1542 _1490_
*1543 _1491_
*1544 _1492_
*1545 _1493_
*1546 _1494_
*1547 _1495_
*1548 _1496_
*1549 _1497_
*1550 _1498_
*1551 _1499_
*1552 _1500_
*1553 _1501_
*1554 _1502_
*1555 _1503_
*1556 _1504_
*1557 _1505_
*1558 _1506_
*1559 _1507_
*1560 _1508_
*1561 _1509_
*1562 _1510_
*1563 _1511_
*1564 _1512_
*1565 _1513_
*1566 _1514_
*1567 _1515_
*1568 _1516_
*1569 _1517_
*1570 _1518_
*1571 _1519_
*1572 _1520_
*1573 _1521_
*1574 _1522_
*1575 _1523_
*1576 _1524_
*1577 _1525_
*1578 _1526_
*1579 _1527_
*1580 _1528_
*1581 _1529_
*1582 _1530_
*1583 _1531_
*1584 _1532_
*1585 _1533_
*1586 _1534_
*1587 _1535_
*1588 _1536_
*1589 _1537_
*1590 _1538_
*1591 _1539_
*1592 _1540_
*1593 _1541_
*1594 _1542_
*1595 _1543_
*1596 _1544_
*1597 _1545_
*1598 _1546_
*1599 _1547_
*1600 _1548_
*1601 _1549_
*1602 _1550_
*1603 _1551_
*1604 _1552_
*1605 _1553_
*1606 _1554_
*1607 _1555_
*1608 _1556_
*1609 _1557_
*1610 _1558_
*1611 _1559_
*1612 _1560_
*1613 _1561_
*1614 _1562_
*1615 _1563_
*1616 _1564_
*1617 _1565_
*1618 _1566_
*1619 _1567_
*1620 _1568_
*1621 _1569_
*1622 _1570_
*1623 _1571_
*1624 _1572_
*1625 _1573_
*1626 _1574_
*1627 _1575_
*1628 _1576_
*1629 _1577_
*1630 _1578_
*1631 _1579_
*1632 _1580_
*1633 _1581_
*1634 _1582_
*1635 _1583_
*1636 _1584_
*1637 _1585_
*1638 _1586_
*1639 _1587_
*1640 _1588_
*1641 _1589_
*1642 _1590_
*1643 _1591_
*1644 _1592_
*1645 _1593_
*1646 _1594_
*1647 _1595_
*1648 _1596_
*1649 _1597_
*1650 _1598_
*1651 _1599_
*1652 _1600_
*1653 _1601_
*1654 _1602_
*1655 _1603_
*1656 _1604_
*1657 _1605_
*1658 _1606_
*1659 _1607_
*1660 _1608_
*1661 _1609_
*1662 _1610_
*1663 _1611_
*1664 _1612_
*1665 _1613_
*1666 _1614_
*1667 _1615_
*1668 _1616_
*1669 _1617_
*1670 _1618_
*1671 _1619_
*1672 _1620_
*1673 _1621_
*1674 _1622_
*1675 _1623_
*1676 _1624_
*1677 _1625_
*1678 _1626_
*1679 _1627_
*1680 _1628_
*1681 _1629_
*1682 _1630_
*1683 _1631_
*1684 _1632_
*1685 _1633_
*1686 _1634_
*1687 _1635_
*1688 _1636_
*1689 _1637_
*1690 _1638_
*1691 _1639_
*1692 _1640_
*1693 _1641_
*1694 _1642_
*1695 _1643_
*1696 _1644_
*1697 _1645_
*1698 _1646_
*1699 _1647_
*1700 _1648_
*1701 _1649_
*1702 _1650_
*1703 _1651_
*1704 _1652_
*1705 _1653_
*1706 _1654_
*1707 _1655_
*1708 _1656_
*1709 _1657_
*1710 _1658_
*1711 _1659_
*1712 _1660_
*1713 _1661_
*1714 _1662_
*1715 _1663_
*1716 _1664_
*1717 _1665_
*1718 _1666_
*1719 _1667_
*1720 _1668_
*1721 _1669_
*1722 _1670_
*1723 _1671_
*1724 _1672_
*1725 _1673_
*1726 _1674_
*1727 _1675_
*1728 _1676_
*1729 _1677_
*1730 _1678_
*1731 _1679_
*1732 _1680_
*1733 _1681_
*1734 _1682_
*1735 _1683_
*1736 _1684_
*1737 _1685_
*1738 _1686_
*1739 _1687_
*1740 _1688_
*1741 _1689_
*1742 _1690_
*1743 _1691_
*1744 _1692_
*1745 _1693_
*1746 _1694_
*1747 _1695_
*1748 _1696_
*1749 _1697_
*1750 _1698_
*1751 _1699_
*1752 _1700_
*1753 _1701_
*1754 _1702_
*1755 _1703_
*1756 _1704_
*1757 _1705_
*1758 _1706_
*1759 _1707_
*1760 _1708_
*1761 _1709_
*1762 _1710_
*1763 _1711_
*1764 _1712_
*1765 _1713_
*1766 _1714_
*1767 _1715_
*1768 _1716_
*1769 _1717_
*1770 _1718_
*1771 _1719_
*1772 _1720_
*1773 _1721_
*1774 _1722_
*1775 _1723_
*1776 _1724_
*1777 _1725_
*1778 _1726_
*1779 _1727_
*1780 _1728_
*1781 _1729_
*1782 _1730_
*1783 _1731_
*1784 _1732_
*1785 _1733_
*1786 _1734_
*1787 _1735_
*1788 _1736_
*1789 _1737_
*1790 _1738_
*1791 _1739_
*1792 _1740_
*1793 _1741_
*1794 _1742_
*1795 _1743_
*1796 _1744_
*1797 _1745_
*1798 _1746_
*1799 _1747_
*1800 _1748_
*1801 _1749_
*1802 _1750_
*1803 _1751_
*1804 _1752_
*1805 _1753_
*1806 _1754_
*1807 _1755_
*1808 _1756_
*1809 _1757_
*1810 _1758_
*1811 _1759_
*1812 _1760_
*1813 _1761_
*1814 _1762_
*1815 _1763_
*1816 _1764_
*1817 _1765_
*1818 _1766_
*1819 _1767_
*1820 _1768_
*1821 _1769_
*1822 _1770_
*1823 _1771_
*1824 _1772_
*1825 _1773_
*1826 _1774_
*1827 _1775_
*1828 _1776_
*1829 _1777_
*1830 _1778_
*1831 _1779_
*1832 _1780_
*1833 _1781_
*1834 _1782_
*1835 _1783_
*1836 _1784_
*1837 _1785_
*1838 _1786_
*1839 _1787_
*1840 _1788_
*1841 _1789_
*1842 _1790_
*1843 _1791_
*1844 _1792_
*1845 _1793_
*1846 _1794_
*1847 _1795_
*1848 _1796_
*1849 _1797_
*1850 _1798_
*1851 _1799_
*1852 _1800_
*1853 _1801_
*1854 _1802_
*1855 _1803_
*1856 _1804_
*1857 _1805_
*1858 _1806_
*1859 _1807_
*1860 _1808_
*1861 _1809_
*1862 _1810_
*1863 _1811_
*1864 _1812_
*1865 _1813_
*1866 _1814_
*1867 _1815_
*1868 _1816_
*1869 _1817_
*1870 _1818_
*1871 _1819_
*1872 _1820_
*1873 _1821_
*1874 _1822_
*1875 _1823_
*1876 _1824_
*1877 _1825_
*1878 _1826_
*1879 _1827_
*1880 _1828_
*1881 _1829_
*1882 _1830_
*1883 _1831_
*1884 _1832_
*1885 _1833_
*1886 _1834_
*1887 _1835_
*1888 _1836_
*1889 _1837_
*1890 _1838_
*1891 _1839_
*1892 _1840_
*1893 _1841_
*1894 _1842_
*1895 _1843_
*1896 _1844_
*1897 _1845_
*1898 _1846_
*1899 _1847_
*1900 _1848_
*1901 _1849_
*1902 _1850_
*1903 _1851_
*1904 _1852_
*1905 _1853_
*1906 _1854_
*1907 _1855_
*1908 _1856_
*1909 _1857_
*1910 _1858_
*1911 _1859_
*1912 _1860_
*1913 _1861_
*1914 _1862_
*1915 _1863_
*1916 _1864_
*1917 _1865_
*1918 _1866_
*1919 _1867_
*1920 _1868_
*1921 _1869_
*1922 _1870_
*1923 _1871_
*1924 _1872_
*1925 _1873_
*1926 _1874_
*1927 _1875_
*1928 _1876_
*1929 _1877_
*1930 _1878_
*1931 _1879_
*1932 _1880_
*1933 _1881_
*1934 _1882_
*1935 _1883_
*1936 _1884_
*1937 _1885_
*1938 _1886_
*1939 _1887_
*1940 _1888_
*1941 _1889_
*1942 _1890_
*1943 _1891_
*1944 _1892_
*1945 _1893_
*1946 _1894_
*1947 _1895_
*1948 _1896_
*1949 _1897_
*1950 _1898_
*1951 _1899_
*1952 _1900_
*1953 _1901_
*1954 _1902_
*1955 _1903_
*1956 _1904_
*1957 _1905_
*1958 _1906_
*1959 _1907_
*1960 _1908_
*1961 _1909_
*1962 _1910_
*1963 _1911_
*1964 _1912_
*1965 _1913_
*1966 _1914_
*1967 _1915_
*1968 _1916_
*1969 _1917_
*1970 _1918_
*1971 _1919_
*1972 _1920_
*1973 _1921_
*1974 _1922_
*1975 _1923_
*1976 _1924_
*1977 _1925_
*1978 _1926_
*1979 _1927_
*1980 _1928_
*1981 _1929_
*1982 _1930_
*1983 _1931_
*1984 _1932_
*1985 _1933_
*1986 _1934_
*1987 _1935_
*1988 _1936_
*1989 _1937_
*1990 _1938_
*1991 _1939_
*1992 _1940_
*1993 _1941_
*1994 _1942_
*1995 _1943_
*1996 _1944_
*1997 _1945_
*1998 _1946_
*1999 _1947_
*2000 _1948_
*2001 _1949_
*2002 _1950_
*2003 _1951_
*2004 _1952_
*2005 _1953_
*2006 _1954_
*2007 _1955_
*2008 _1956_
*2009 _1957_
*2010 _1958_
*2011 _1959_
*2012 _1960_
*2013 _1961_
*2014 _1962_
*2015 _1963_
*2016 _1964_
*2017 _1965_
*2018 _1966_
*2019 _1967_
*2020 _1968_
*2021 _1969_
*2022 _1970_
*2023 _1971_
*2024 _1972_
*2025 _1973_
*2026 _1974_
*2027 _1975_
*2028 _1976_
*2029 _1977_
*2030 _1978_
*2031 _1979_
*2032 _1980_
*2033 _1981_
*2034 _1982_
*2035 _1983_
*2036 _1984_
*2037 _1985_
*2038 _1986_
*2039 _1987_
*2040 _1988_
*2041 _1989_
*2042 _1990_
*2043 _1991_
*2044 _1992_
*2045 _1993_
*2046 _1994_
*2047 _1995_
*2048 _1996_
*2049 _1997_
*2050 _1998_
*2051 _1999_
*2052 _2000_
*2053 _2001_
*2054 _2002_
*2055 _2003_
*2056 _2004_
*2057 _2005_
*2058 _2006_
*2059 _2007_
*2060 _2008_
*2061 _2009_
*2062 _2010_
*2063 _2011_
*2064 _2012_
*2065 clknet_0_clk
*2066 clknet_3_0__leaf_clk
*2067 clknet_3_1__leaf_clk
*2068 clknet_3_2__leaf_clk
*2069 clknet_3_3__leaf_clk
*2070 clknet_3_4__leaf_clk
*2071 clknet_3_5__leaf_clk
*2072 clknet_3_6__leaf_clk
*2073 clknet_3_7__leaf_clk
*2074 clknet_leaf_0_clk
*2075 clknet_leaf_10_clk
*2076 clknet_leaf_11_clk
*2077 clknet_leaf_12_clk
*2078 clknet_leaf_13_clk
*2079 clknet_leaf_14_clk
*2080 clknet_leaf_15_clk
*2081 clknet_leaf_16_clk
*2082 clknet_leaf_17_clk
*2083 clknet_leaf_18_clk
*2084 clknet_leaf_19_clk
*2085 clknet_leaf_1_clk
*2086 clknet_leaf_20_clk
*2087 clknet_leaf_21_clk
*2088 clknet_leaf_22_clk
*2089 clknet_leaf_23_clk
*2090 clknet_leaf_24_clk
*2091 clknet_leaf_25_clk
*2092 clknet_leaf_26_clk
*2093 clknet_leaf_27_clk
*2094 clknet_leaf_28_clk
*2095 clknet_leaf_29_clk
*2096 clknet_leaf_2_clk
*2097 clknet_leaf_30_clk
*2098 clknet_leaf_31_clk
*2099 clknet_leaf_32_clk
*2100 clknet_leaf_33_clk
*2101 clknet_leaf_34_clk
*2102 clknet_leaf_35_clk
*2103 clknet_leaf_36_clk
*2104 clknet_leaf_37_clk
*2105 clknet_leaf_38_clk
*2106 clknet_leaf_39_clk
*2107 clknet_leaf_3_clk
*2108 clknet_leaf_40_clk
*2109 clknet_leaf_41_clk
*2110 clknet_leaf_42_clk
*2111 clknet_leaf_43_clk
*2112 clknet_leaf_44_clk
*2113 clknet_leaf_45_clk
*2114 clknet_leaf_46_clk
*2115 clknet_leaf_47_clk
*2116 clknet_leaf_48_clk
*2117 clknet_leaf_49_clk
*2118 clknet_leaf_4_clk
*2119 clknet_leaf_50_clk
*2120 clknet_leaf_51_clk
*2121 clknet_leaf_52_clk
*2122 clknet_leaf_53_clk
*2123 clknet_leaf_54_clk
*2124 clknet_leaf_55_clk
*2125 clknet_leaf_5_clk
*2126 clknet_leaf_6_clk
*2127 clknet_leaf_7_clk
*2128 clknet_leaf_8_clk
*2129 clknet_leaf_9_clk
*2130 net1
*2131 net10
*2132 net100
*2133 net1000
*2134 net1001
*2135 net1002
*2136 net1003
*2137 net1004
*2138 net1005
*2139 net1006
*2140 net1007
*2141 net1008
*2142 net1009
*2143 net101
*2144 net1010
*2145 net1011
*2146 net1012
*2147 net1013
*2148 net1014
*2149 net1015
*2150 net1016
*2151 net1017
*2152 net1018
*2153 net1019
*2154 net102
*2155 net1020
*2156 net1021
*2157 net1022
*2158 net1023
*2159 net1024
*2160 net1025
*2161 net1026
*2162 net1027
*2163 net1028
*2164 net1029
*2165 net103
*2166 net1030
*2167 net1031
*2168 net1032
*2169 net1033
*2170 net1034
*2171 net1035
*2172 net1036
*2173 net1037
*2174 net1038
*2175 net1039
*2176 net104
*2177 net1040
*2178 net1041
*2179 net1042
*2180 net1043
*2181 net1044
*2182 net1045
*2183 net1046
*2184 net1047
*2185 net1048
*2186 net1049
*2187 net105
*2188 net1050
*2189 net1051
*2190 net1052
*2191 net1053
*2192 net1054
*2193 net1055
*2194 net1056
*2195 net1057
*2196 net1058
*2197 net1059
*2198 net106
*2199 net1060
*2200 net1061
*2201 net1062
*2202 net1063
*2203 net1064
*2204 net1065
*2205 net1066
*2206 net1067
*2207 net1068
*2208 net1069
*2209 net107
*2210 net1070
*2211 net108
*2212 net109
*2213 net11
*2214 net110
*2215 net111
*2216 net112
*2217 net113
*2218 net114
*2219 net115
*2220 net116
*2221 net117
*2222 net118
*2223 net119
*2224 net12
*2225 net120
*2226 net121
*2227 net122
*2228 net123
*2229 net124
*2230 net125
*2231 net126
*2232 net127
*2233 net128
*2234 net129
*2235 net13
*2236 net130
*2237 net131
*2238 net132
*2239 net133
*2240 net134
*2241 net135
*2242 net136
*2243 net137
*2244 net138
*2245 net139
*2246 net14
*2247 net140
*2248 net141
*2249 net142
*2250 net143
*2251 net144
*2252 net145
*2253 net146
*2254 net147
*2255 net148
*2256 net149
*2257 net15
*2258 net150
*2259 net151
*2260 net152
*2261 net153
*2262 net154
*2263 net155
*2264 net156
*2265 net157
*2266 net158
*2267 net159
*2268 net16
*2269 net160
*2270 net161
*2271 net162
*2272 net163
*2273 net164
*2274 net165
*2275 net166
*2276 net167
*2277 net168
*2278 net169
*2279 net17
*2280 net170
*2281 net171
*2282 net172
*2283 net173
*2284 net174
*2285 net175
*2286 net176
*2287 net177
*2288 net178
*2289 net179
*2290 net18
*2291 net180
*2292 net181